
  EPA STORM WATER MANAGEMENT MODEL - VERSION 5.1 (Build 5.1.010)
  --------------------------------------------------------------

  WARNING 02: maximum depth increased for Node J_16
  WARNING 02: maximum depth increased for Node J_23
  WARNING 02: maximum depth increased for Node J_24
  WARNING 02: maximum depth increased for Node J_29
  WARNING 02: maximum depth increased for Node J_30
  WARNING 02: maximum depth increased for Node J_31
  WARNING 02: maximum depth increased for Node J_32
  WARNING 02: maximum depth increased for Node J_33
  WARNING 02: maximum depth increased for Node J_66
  WARNING 02: maximum depth increased for Node J_79
  WARNING 02: maximum depth increased for Node J_97
  WARNING 02: maximum depth increased for Node J_118
  WARNING 02: maximum depth increased for Node J_119
  WARNING 02: maximum depth increased for Node J_162
  WARNING 02: maximum depth increased for Node J_205
  WARNING 02: maximum depth increased for Node J_206
  WARNING 02: maximum depth increased for Node J_209
  WARNING 02: maximum depth increased for Node J_210
  WARNING 02: maximum depth increased for Node J_215
  WARNING 02: maximum depth increased for Node J_216
  WARNING 02: maximum depth increased for Node J_217
  WARNING 02: maximum depth increased for Node J_221
  WARNING 02: maximum depth increased for Node J_222
  WARNING 02: maximum depth increased for Node J_223
  
  *********************************************************
  NOTE: The summary statistics displayed in this report are
  based on results found at every computational time step,  
  not just on results from each reporting time step.
  *********************************************************
  
  ****************
  Analysis Options
  ****************
  Flow Units ............... CMS
  Process Models:
    Rainfall/Runoff ........ YES
    RDII ................... NO
    Snowmelt ............... NO
    Groundwater ............ NO
    Flow Routing ........... YES
    Ponding Allowed ........ NO
    Water Quality .......... NO
  Infiltration Method ...... HORTON
  Flow Routing Method ...... DYNWAVE
  Starting Date ............ JAN-01-2018 00:00:00
  Ending Date .............. JAN-01-2018 03:00:00
  Antecedent Dry Days ...... 14.0
  Report Time Step ......... 00:01:00
  Wet Time Step ............ 00:01:00
  Dry Time Step ............ 01:00:00
  Routing Time Step ........ 5.00 sec
  Variable Time Step ....... NO
  Maximum Trials ........... 8
  Number of Threads ........ 1
  Head Tolerance ........... 0.001500 m
  
  
  *********************
  Control Actions Taken
  *********************

  
  **************************        Volume         Depth
  Runoff Quantity Continuity     hectare-m            mm
  **************************     ---------       -------
  Total Precipitation ......         3.226        52.230
  Evaporation Loss .........         0.000         0.000
  Infiltration Loss ........         1.533        24.809
  Surface Runoff ...........         1.699        27.505
  Final Storage ............         0.001         0.016
  Continuity Error (%) .....        -0.191
  
  
  **************************        Volume        Volume
  Flow Routing Continuity        hectare-m      10^6 ltr
  **************************     ---------     ---------
  Dry Weather Inflow .......         0.000         0.000
  Wet Weather Inflow .......         1.699        16.991
  Groundwater Inflow .......         0.000         0.000
  RDII Inflow ..............         0.000         0.000
  External Inflow ..........         0.000         0.000
  External Outflow .........         1.033        10.326
  Flooding Loss ............         0.670         6.696
  Evaporation Loss .........         0.000         0.000
  Exfiltration Loss ........         0.000         0.000
  Initial Stored Volume ....         0.000         0.000
  Final Stored Volume ......         0.000         0.001
  Continuity Error (%) .....        -0.183
  
  
  ********************************
  Highest Flow Instability Indexes
  ********************************
  Link C_158 (5)
  Link C_75 (4)
  Link C_118 (3)
  Link C_41 (3)
  Link C_34 (3)
  
  
  *************************
  Routing Time Step Summary
  *************************
  Minimum Time Step           :     5.00 sec
  Average Time Step           :     5.00 sec
  Maximum Time Step           :     5.00 sec
  Percent in Steady State     :     0.00
  Average Iterations per Step :     2.68
  Percent Not Converging      :     9.68
  
  
  ***************************
  Subcatchment Runoff Summary
  ***************************
  
  --------------------------------------------------------------------------------------------------------
                            Total      Total      Total      Total      Total       Total     Peak  Runoff
                           Precip      Runon       Evap      Infil     Runoff      Runoff   Runoff   Coeff
  Subcatchment                 mm         mm         mm         mm         mm    10^6 ltr      CMS
  --------------------------------------------------------------------------------------------------------
  S_1                       52.23       0.00       0.00      40.58      11.73        0.10     0.21   0.224
  S_2                       52.23       0.00       0.00      40.59      11.71        0.11     0.24   0.224
  S_3                       52.23       0.00       0.00      40.25      12.06        0.13     0.27   0.231
  S_4                       52.23       0.00       0.00      40.59      11.71        0.14     0.29   0.224
  S_5                       52.23       0.00       0.00      28.02      24.29        0.04     0.05   0.465
  S_6                       52.23       0.00       0.00      16.56      35.77        0.05     0.04   0.685
  S_7                       52.23       0.00       0.00      23.21      29.10        0.04     0.05   0.557
  S_8                       52.23       0.00       0.00      21.33      30.98        0.05     0.05   0.593
  S_9                       52.23       0.00       0.00      19.63      32.69        0.07     0.07   0.626
  S_10                      52.23       0.00       0.00      20.11      32.20        0.13     0.13   0.617
  S_11                      52.23       0.00       0.00      15.47      36.86        0.12     0.11   0.706
  S_12                      52.23       0.00       0.00      15.47      36.85        0.08     0.07   0.706
  S_13                      52.23       0.00       0.00      19.37      32.97        0.16     0.16   0.631
  S_14                      52.23       0.00       0.00      15.76      36.57        0.10     0.10   0.700
  S_15                      52.23       0.00       0.00      17.61      34.71        0.07     0.07   0.665
  S_16                      52.23       0.00       0.00      20.29      32.02        0.09     0.09   0.613
  S_17                      52.23       0.00       0.00      25.30      27.01        0.08     0.09   0.517
  S_18                      52.23       0.00       0.00      18.48      33.84        0.09     0.09   0.648
  S_19                      52.23       0.00       0.00      30.08      22.23        0.12     0.15   0.426
  S_20                      52.23       0.00       0.00      33.16      19.14        0.10     0.14   0.366
  S_21                      52.23       0.00       0.00      14.89      37.43        0.07     0.06   0.717
  S_22                      52.23       0.00       0.00      21.84      30.48        0.05     0.06   0.584
  S_23                      52.23       0.00       0.00      21.77      30.55        0.06     0.06   0.585
  S_24                      52.23       0.00       0.00      18.54      33.78        0.11     0.11   0.647
  S_25                      52.23       0.00       0.00      22.36      29.95        0.11     0.12   0.573
  S_26                      52.23       0.00       0.00      31.63      20.67        0.04     0.06   0.396
  S_27                      52.23       0.00       0.00      11.74      40.59        0.10     0.09   0.777
  S_28                      52.23       0.00       0.00      14.22      38.11        0.08     0.08   0.730
  S_29                      52.23       0.00       0.00      18.45      33.87        0.08     0.08   0.648
  S_30                      52.23       0.00       0.00      17.97      34.35        0.08     0.08   0.658
  S_31                      52.23       0.00       0.00      12.76      39.57        0.05     0.05   0.758
  S_32                      52.23       0.00       0.00      31.68      20.62        0.06     0.08   0.395
  S_33                      52.23       0.00       0.00      37.80      14.50        0.07     0.13   0.278
  S_34                      52.23       0.00       0.00      37.86      14.44        0.10     0.18   0.276
  S_35                      52.23       0.00       0.00      35.67      16.63        0.10     0.16   0.318
  S_36                      52.23       0.00       0.00      26.44      25.87        0.09     0.11   0.495
  S_37                      52.23       0.00       0.00      15.42      36.91        0.09     0.08   0.707
  S_38                      52.23       0.00       0.00      18.67      33.65        0.16     0.16   0.644
  S_39                      52.23       0.00       0.00      13.84      38.48        0.13     0.12   0.737
  S_40                      52.23       0.00       0.00      16.43      35.90        0.07     0.07   0.687
  S_41                      52.23       0.00       0.00      19.23      33.08        0.11     0.11   0.633
  S_42                      52.23       0.00       0.00      19.04      33.27        0.12     0.12   0.637
  S_43                      52.23       0.00       0.00      15.82      36.50        0.13     0.12   0.699
  S_44                      52.23       0.00       0.00      14.96      37.37        0.13     0.12   0.715
  S_45                      52.23       0.00       0.00       9.25      43.08        0.12     0.10   0.825
  S_46                      52.23       0.00       0.00      18.41      33.90        0.18     0.18   0.649
  S_47                      52.23       0.00       0.00      17.26      35.06        0.13     0.12   0.671
  S_48                      52.23       0.00       0.00      17.93      34.39        0.11     0.11   0.658
  S_49                      52.23       0.00       0.00      14.69      37.63        0.08     0.07   0.721
  S_50                      52.23       0.00       0.00      16.43      35.90        0.13     0.12   0.687
  S_51                      52.23       0.00       0.00      18.82      33.50        0.12     0.12   0.641
  S_52                      52.23       0.00       0.00      18.71      33.61        0.14     0.14   0.643
  S_53                      52.23       0.00       0.00      17.74      34.57        0.06     0.06   0.662
  S_54                      52.23       0.00       0.00      23.60      28.71        0.05     0.05   0.550
  S_55                      52.23       0.00       0.00      13.71      38.62        0.06     0.06   0.739
  S_56                      52.23       0.00       0.00      18.72      33.60        0.06     0.06   0.643
  S_57                      52.23       0.00       0.00      16.46      35.87        0.08     0.08   0.687
  S_58                      52.23       0.00       0.00      20.21      32.11        0.14     0.14   0.615
  S_59                      52.23       0.00       0.00      31.62      20.68        0.08     0.11   0.396
  S_60                      52.23       0.00       0.00      31.30      21.00        0.05     0.07   0.402
  S_61                      52.23       0.00       0.00      22.52      29.79        0.05     0.05   0.570
  S_62                      52.23       0.00       0.00      17.57      34.76        0.09     0.09   0.666
  S_63                      52.23       0.00       0.00      17.17      35.16        0.14     0.14   0.673
  S_64                      52.23       0.00       0.00      17.12      35.21        0.05     0.05   0.674
  S_65                      52.23       0.00       0.00      14.56      37.77        0.12     0.11   0.723
  S_66                      52.23       0.00       0.00      17.69      34.63        0.14     0.13   0.663
  S_67                      52.23       0.00       0.00      16.64      35.69        0.16     0.15   0.683
  S_68                      52.23       0.00       0.00      17.93      34.39        0.16     0.16   0.658
  S_69                      52.23       0.00       0.00      17.35      34.97        0.10     0.10   0.670
  S_70                      52.23       0.00       0.00      18.95      33.37        0.09     0.09   0.639
  S_71                      52.23       0.00       0.00      16.74      35.59        0.14     0.14   0.681
  S_72                      52.23       0.00       0.00      17.07      35.26        0.14     0.14   0.675
  S_73                      52.23       0.00       0.00      17.69      34.63        0.13     0.13   0.663
  S_74                      52.23       0.00       0.00      16.72      35.60        0.16     0.16   0.682
  S_75                      52.23       0.00       0.00      24.70      27.62        0.07     0.08   0.529
  S_76                      52.23       0.00       0.00      24.53      27.78        0.13     0.15   0.532
  S_77                      52.23       0.00       0.00      21.35      30.96        0.12     0.12   0.593
  S_78                      52.23       0.00       0.00      16.71      35.61        0.10     0.09   0.682
  S_79                      52.23       0.00       0.00      15.97      36.36        0.06     0.05   0.696
  S_80                      52.23       0.00       0.00      19.22      33.09        0.08     0.08   0.634
  S_81                      52.23       0.00       0.00      17.96      34.36        0.11     0.11   0.658
  S_82                      52.23       0.00       0.00      17.37      34.96        0.13     0.12   0.669
  S_83                      52.23       0.00       0.00      17.40      34.93        0.17     0.16   0.669
  S_84                      52.23       0.00       0.00      17.04      35.29        0.14     0.13   0.676
  S_85                      52.23       0.00       0.00      17.84      34.48        0.10     0.10   0.660
  S_86                      52.23       0.00       0.00      16.25      36.07        0.13     0.12   0.691
  S_87                      52.23       0.00       0.00      15.04      37.28        0.11     0.11   0.714
  S_88                      52.23       0.00       0.00      16.33      36.00        0.10     0.09   0.689
  S_89                      52.23       0.00       0.00      40.43      11.87        0.06     0.13   0.227
  S_90                      52.23       0.00       0.00      39.92      12.39        0.03     0.07   0.237
  S_91                      52.23       0.00       0.00      37.45      14.85        0.05     0.09   0.284
  S_92                      52.23       0.00       0.00      41.28      11.03        0.06     0.13   0.211
  S_93                      52.23       0.00       0.00      34.14      18.16        0.13     0.20   0.348
  S_94                      52.23       0.00       0.00      20.08      32.24        0.14     0.14   0.617
  S_95                      52.23       0.00       0.00      22.30      30.02        0.12     0.13   0.575
  S_96                      52.23       0.00       0.00      24.56      27.75        0.14     0.16   0.531
  S_97                      52.23       0.00       0.00      24.81      27.50        0.15     0.17   0.527
  S_98                      52.23       0.00       0.00      24.36      27.95        0.12     0.13   0.535
  S_99                      52.23       0.00       0.00      24.27      28.04        0.12     0.14   0.537
  S_100                     52.23       0.00       0.00      23.17      29.14        0.12     0.13   0.558
  S_101                     52.23       0.00       0.00      23.17      29.14        0.13     0.14   0.558
  S_102                     52.23       0.00       0.00      22.68      29.63        0.12     0.13   0.567
  S_103                     52.23       0.00       0.00      23.78      28.53        0.08     0.09   0.546
  S_104                     52.23       0.00       0.00      25.25      27.07        0.08     0.10   0.518
  S_105                     52.23       0.00       0.00      22.59      29.72        0.08     0.09   0.569
  S_106                     52.23       0.00       0.00      29.90      22.40        0.04     0.05   0.429
  S_107                     52.23       0.00       0.00      28.78      23.53        0.02     0.02   0.451
  S_108                     52.23       0.00       0.00      30.51      21.79        0.04     0.05   0.417
  S_109                     52.23       0.00       0.00      30.55      21.75        0.12     0.15   0.416
  S_110                     52.23       0.00       0.00      39.19      13.11        0.06     0.11   0.251
  S_111                     52.23       0.00       0.00      33.89      18.41        0.05     0.07   0.352
  S_112                     52.23       0.00       0.00      18.59      33.73        0.12     0.12   0.646
  S_113                     52.23       0.00       0.00      15.60      36.73        0.14     0.13   0.703
  S_114                     52.23       0.00       0.00      26.88      25.43        0.09     0.11   0.487
  S_115                     52.23       0.00       0.00      24.16      28.15        0.08     0.09   0.539
  S_116                     52.23       0.00       0.00      23.57      28.75        0.10     0.11   0.550
  S_117                     52.23       0.00       0.00      22.75      29.56        0.11     0.12   0.566
  S_118                     52.23       0.00       0.00      26.55      25.76        0.10     0.12   0.493
  S_119                     52.23       0.00       0.00      21.55      30.76        0.08     0.09   0.589
  S_120                     52.23       0.00       0.00      41.91      10.39        0.07     0.17   0.199
  S_121                     52.23       0.00       0.00      41.58      10.73        0.07     0.17   0.205
  S_122                     52.23       0.00       0.00      36.74      15.56        0.13     0.23   0.298
  S_123                     52.23       0.00       0.00      19.56      32.76        0.08     0.08   0.627
  S_124                     52.23       0.00       0.00      17.38      34.95        0.09     0.09   0.669
  S_125                     52.23       0.00       0.00      17.32      35.00        0.10     0.10   0.670
  S_126                     52.23       0.00       0.00      21.96      30.36        0.11     0.12   0.581
  S_127                     52.23       0.00       0.00      22.70      29.61        0.09     0.09   0.567
  S_128                     52.23       0.00       0.00      20.41      31.90        0.10     0.10   0.611
  S_129                     52.23       0.00       0.00      15.67      36.66        0.08     0.08   0.702
  S_130                     52.23       0.00       0.00      19.32      33.00        0.06     0.06   0.632
  S_131                     52.23       0.00       0.00      19.48      32.84        0.08     0.09   0.629
  S_132                     52.23       0.00       0.00      15.80      36.53        0.11     0.10   0.699
  S_133                     52.23       0.00       0.00      19.42      32.89        0.11     0.11   0.630
  S_134                     52.23       0.00       0.00      23.28      29.03        0.06     0.07   0.556
  S_135                     52.23       0.00       0.00      34.37      17.93        0.20     0.30   0.343
  S_136                     52.23       0.00       0.00      30.17      22.13        0.29     0.38   0.424
  S_137                     52.23       0.00       0.00      24.51      27.80        0.31     0.35   0.532
  S_138                     52.23       0.00       0.00      19.37      32.98        0.15     0.15   0.631
  S_139                     52.23       0.00       0.00      17.94      34.38        0.17     0.16   0.658
  S_140                     52.23       0.00       0.00      22.01      30.30        0.16     0.17   0.580
  S_141                     52.23       0.00       0.00      15.81      36.52        0.15     0.14   0.699
  S_142                     52.23       0.00       0.00      13.64      38.68        0.16     0.14   0.741
  S_143                     52.23       0.00       0.00      12.91      39.42        0.14     0.12   0.755
  S_144                     52.23       0.00       0.00      16.45      35.88        0.14     0.13   0.687
  S_145                     52.23       0.00       0.00      15.55      36.77        0.10     0.09   0.704
  S_146                     52.23       0.00       0.00      21.41      30.90        0.17     0.17   0.592
  S_147                     52.23       0.00       0.00      21.96      30.35        0.10     0.11   0.581
  S_148                     52.23       0.00       0.00      22.91      29.41        0.10     0.11   0.563
  S_149                     52.23       0.00       0.00      23.92      28.39        0.06     0.06   0.544
  S_150                     52.23       0.00       0.00      11.23      41.09        0.17     0.15   0.787
  S_151                     52.23       0.00       0.00      15.22      37.11        0.17     0.15   0.710
  S_152                     52.23       0.00       0.00      14.47      37.86        0.19     0.17   0.725
  S_153                     52.23       0.00       0.00      40.85      11.46        0.06     0.14   0.219
  S_154                     52.23       0.00       0.00      38.34      13.96        0.10     0.18   0.267
  S_155                     52.23       0.00       0.00      38.49      13.81        0.14     0.26   0.264
  S_156                     52.23       0.00       0.00      41.56      10.75        0.03     0.07   0.206
  S_157                     52.23       0.00       0.00      18.80      33.52        0.11     0.11   0.642
  S_158                     52.23       0.00       0.00      16.53      35.80        0.08     0.08   0.685
  S_159                     52.23       0.00       0.00      19.34      33.01        0.09     0.09   0.632
  S_160                     52.23       0.00       0.00      21.45      30.86        0.09     0.09   0.591
  S_161                     52.23       0.00       0.00      18.19      34.13        0.10     0.10   0.654
  S_162                     52.23       0.00       0.00      17.35      34.97        0.04     0.04   0.670
  S_163                     52.23       0.00       0.00      15.91      36.42        0.11     0.10   0.697
  S_164                     52.23       0.00       0.00      33.74      18.56        0.05     0.08   0.355
  
  
  ******************
  Node Depth Summary
  ******************
  
  ---------------------------------------------------------------------------------
                                 Average  Maximum  Maximum  Time of Max    Reported
                                   Depth    Depth      HGL   Occurrence   Max Depth
  Node                 Type       Meters   Meters   Meters  days hr:min      Meters
  ---------------------------------------------------------------------------------
  J_1                  JUNCTION     0.07     1.79   267.93     0  00:20        0.49
  J_2                  JUNCTION     0.08     1.00   267.80     0  00:17        0.30
  J_3                  JUNCTION     0.09     1.04   267.34     0  00:16        0.32
  J_4                  JUNCTION     0.10     1.00   266.64     0  00:16        0.30
  J_5                  JUNCTION     0.07     0.90   265.68     0  00:25        0.28
  J_6                  JUNCTION     0.03     0.73   261.42     0  00:22        0.16
  J_7                  JUNCTION     0.05     1.07   261.25     0  00:21        0.30
  J_8                  JUNCTION     0.08     1.43   261.11     0  00:22        0.44
  J_9                  JUNCTION     0.12     1.83   260.97     0  00:23        0.56
  J_10                 JUNCTION     0.13     1.00   259.25     0  00:17        0.31
  J_11                 JUNCTION     0.03     0.17   261.86     0  00:25        0.05
  J_12                 JUNCTION     0.02     0.14   265.47     0  00:25        0.04
  J_13                 JUNCTION     0.09     1.00   259.92     0  00:20        0.30
  J_14                 JUNCTION     0.03     0.18   262.54     0  00:25        0.05
  J_15                 JUNCTION     0.02     0.13   264.70     0  00:25        0.04
  J_16                 JUNCTION     0.08     0.34   251.16     0  00:25        0.10
  J_17                 JUNCTION     0.03     0.19   251.61     0  00:25        0.06
  J_18                 JUNCTION     0.06     1.00   251.89     0  00:21        0.30
  J_20                 JUNCTION     0.05     1.00   253.11     0  00:21        0.30
  J_21                 JUNCTION     0.03     0.19   252.17     0  00:25        0.06
  J_23                 JUNCTION     0.04     0.19   247.99     0  00:25        0.06
  J_24                 JUNCTION     0.20     1.05   247.44     0  00:25        0.32
  J_25                 JUNCTION     0.06     0.38   247.99     0  00:25        0.11
  J_26                 JUNCTION     0.09     1.32   249.43     0  00:21        0.40
  J_27                 JUNCTION     0.07     1.32   249.93     0  00:23        0.40
  J_28                 JUNCTION     0.04     1.00   250.02     0  00:21        0.30
  J_29                 JUNCTION     0.35     1.56   251.00     0  00:21        0.48
  J_30                 JUNCTION     0.33     1.11   249.94     0  00:16        0.34
  J_31                 JUNCTION     0.25     0.74   248.94     0  00:25        0.23
  J_32                 JUNCTION     0.26     0.77   248.28     0  00:25        0.23
  J_33                 JUNCTION     0.30     1.29   247.44     0  00:25        0.39
  J_34                 JUNCTION     0.12     1.00   258.85     0  00:17        0.31
  J_35                 JUNCTION     0.09     1.00   261.21     0  00:17        0.30
  J_36                 JUNCTION     0.07     1.00   263.89     0  00:19        0.30
  J_41                 JUNCTION     0.06     1.00   267.60     0  00:20        0.30
  J_49                 JUNCTION     0.06     1.00   253.65     0  00:21        0.30
  J_55                 JUNCTION     0.23     2.26   258.76     0  00:23        0.69
  J_57                 JUNCTION     0.19     2.14   259.13     0  00:22        0.65
  J_58                 JUNCTION     0.19     1.97   259.47     0  00:20        0.60
  J_59                 JUNCTION     0.17     1.80   259.55     0  00:20        0.55
  J_60                 JUNCTION     0.15     1.53   259.78     0  00:19        0.47
  J_61                 JUNCTION     0.14     1.61   260.27     0  00:20        0.49
  J_64                 JUNCTION     0.03     0.15   261.74     0  00:25        0.05
  J_65                 JUNCTION     0.08     0.40   262.97     0  00:25        0.12
  J_66                 JUNCTION     0.42     1.20   253.67     0  00:10        0.37
  J_67                 JUNCTION     0.10     0.40   254.70     0  00:25        0.12
  J_68                 JUNCTION     0.19     1.63   257.76     0  00:18        0.50
  J_71                 JUNCTION     0.03     0.17   263.02     0  00:25        0.05
  J_73                 JUNCTION     0.04     0.23   263.96     0  00:25        0.07
  J_74                 JUNCTION     0.04     0.23   262.37     0  00:25        0.07
  J_75                 JUNCTION     0.08     1.00   259.31     0  00:24        0.30
  J_76                 JUNCTION     0.07     0.68   258.46     0  00:24        0.21
  J_77                 JUNCTION     0.16     1.00   257.87     0  00:21        0.30
  J_79                 JUNCTION     0.12     0.81   247.45     0  00:25        0.24
  J_80                 JUNCTION     0.12     1.00   248.66     0  00:22        0.30
  J_82                 JUNCTION     0.13     1.22   250.09     0  00:23        0.37
  J_84                 JUNCTION     0.13     1.00   254.00     0  00:12        0.30
  J_86                 JUNCTION     0.05     1.00   257.73     0  00:21        0.30
  J_87                 JUNCTION     0.05     1.00   258.96     0  00:21        0.30
  J_88                 JUNCTION     0.05     0.74   257.96     0  00:20        0.21
  J_89                 JUNCTION     0.12     1.00   257.87     0  00:20        0.30
  J_90                 JUNCTION     0.05     0.31   264.62     0  00:25        0.09
  J_91                 JUNCTION     0.09     1.00   261.28     0  00:21        0.30
  J_95                 JUNCTION     0.16     1.00   257.39     0  00:17        0.30
  J_97                 JUNCTION     0.12     0.45   254.57     0  00:23        0.14
  J_100                JUNCTION     0.07     0.30   259.39     0  00:25        0.09
  J_101                JUNCTION     0.13     1.00   262.65     0  00:17        0.30
  J_102                JUNCTION     0.13     1.03   263.53     0  00:20        0.31
  J_103                JUNCTION     0.11     1.00   264.21     0  00:19        0.30
  J_105                JUNCTION     0.06     0.80   264.25     0  00:19        0.24
  J_107                JUNCTION     0.08     1.00   262.61     0  00:21        0.30
  J_108                JUNCTION     0.04     0.27   265.34     0  00:25        0.08
  J_109                JUNCTION     0.06     1.00   266.78     0  00:21        0.30
  J_110                JUNCTION     0.05     0.25   266.46     0  00:25        0.08
  J_111                JUNCTION     0.06     1.00   274.16     0  00:21        0.30
  J_112                JUNCTION     0.08     1.50   274.16     0  00:21        0.46
  J_113                JUNCTION     0.07     1.00   272.22     0  00:20        0.30
  J_114                JUNCTION     0.15     2.03   264.69     0  00:23        0.62
  J_115                JUNCTION     0.20     1.68   263.42     0  00:21        0.51
  J_116                JUNCTION     0.17     1.00   262.12     0  00:20        0.30
  J_117                JUNCTION     0.16     1.00   261.58     0  00:20        0.30
  J_118                JUNCTION     0.17     1.08   260.62     0  00:20        0.33
  J_119                JUNCTION     0.19     1.19   260.06     0  00:21        0.36
  J_120                JUNCTION     0.08     1.00   269.14     0  00:20        0.30
  J_123                JUNCTION     0.16     1.98   264.23     0  00:23        0.60
  J_126                JUNCTION     0.07     1.00   266.85     0  00:20        0.30
  J_127                JUNCTION     0.03     0.19   269.28     0  00:25        0.06
  J_128                JUNCTION     0.06     1.00   270.17     0  00:21        0.30
  J_130                JUNCTION     0.41     7.62   277.31     0  00:25        2.32
  J_131                JUNCTION     0.35     6.74   276.98     0  00:21        2.05
  J_132                JUNCTION     0.31     5.50   276.04     0  00:20        1.68
  J_133                JUNCTION     0.22     3.50   274.54     0  00:20        1.07
  J_134                JUNCTION     0.09     1.00   272.62     0  00:17        0.30
  J_136                JUNCTION     0.10     1.00   256.26     0  00:16        0.30
  J_137                JUNCTION     0.06     1.00   259.53     0  00:20        0.30
  J_138                JUNCTION     0.05     1.00   261.82     0  00:22        0.30
  J_139                JUNCTION     0.09     0.78   263.92     0  00:23        0.24
  J_140                JUNCTION     0.13     1.00   264.94     0  00:21        0.30
  J_141                JUNCTION     0.10     1.00   266.85     0  00:21        0.30
  J_142                JUNCTION     0.08     1.00   269.35     0  00:21        0.30
  J_144                JUNCTION     0.17     2.10   271.94     0  00:21        0.64
  J_146                JUNCTION     0.07     1.00   273.00     0  00:21        0.30
  J_148                JUNCTION     0.06     1.00   272.63     0  00:21        0.30
  J_149                JUNCTION     0.06     1.11   272.42     0  00:21        0.34
  J_151                JUNCTION     0.03     0.17   270.56     0  00:25        0.05
  J_153                JUNCTION     0.03     0.19   269.25     0  00:25        0.06
  J_154                JUNCTION     0.03     0.26   268.02     0  00:25        0.08
  J_155                JUNCTION     0.03     0.22   266.36     0  00:25        0.07
  J_156                JUNCTION     0.13     1.00   264.33     0  00:17        0.30
  J_157                JUNCTION     0.14     1.00   262.12     0  00:17        0.30
  J_158                JUNCTION     0.10     0.89   259.98     0  00:22        0.26
  J_161                JUNCTION     0.08     0.31   254.09     0  00:25        0.09
  J_162                JUNCTION     0.15     1.04   251.03     0  00:21        0.31
  J_165                JUNCTION     0.05     0.23   266.15     0  00:25        0.07
  J_166                JUNCTION     0.12     1.00   269.19     0  00:15        0.30
  J_167                JUNCTION     0.10     1.00   271.36     0  00:16        0.30
  J_168                JUNCTION     0.08     1.00   274.25     0  00:18        0.30
  J_169                JUNCTION     0.06     1.00   276.69     0  00:21        0.30
  J_170                JUNCTION     0.04     0.64   277.76     0  00:23        0.20
  J_172                JUNCTION     0.45     7.95   277.15     0  00:22        2.42
  J_173                JUNCTION     0.46     7.39   276.08     0  00:21        2.25
  J_174                JUNCTION     0.44     5.34   273.34     0  00:20        1.63
  J_176                JUNCTION     0.09     1.14   250.40     0  00:22        0.35
  J_177                JUNCTION     0.08     1.00   250.76     0  00:21        0.30
  J_178                JUNCTION     0.05     1.00   251.26     0  00:22        0.21
  J_179                JUNCTION     0.03     0.16   254.26     0  00:25        0.05
  J_180                JUNCTION     0.04     0.74   270.33     0  00:22        0.18
  J_182                JUNCTION     0.09     1.00   271.39     0  00:20        0.30
  J_185                JUNCTION     0.04     0.22   269.69     0  00:25        0.07
  J_186                JUNCTION     0.14     1.51   268.48     0  00:21        0.43
  J_188                JUNCTION     0.08     1.10   267.44     0  00:21        0.27
  J_190                JUNCTION     0.03     0.17   269.29     0  00:25        0.05
  J_193                JUNCTION     0.03     0.20   268.59     0  00:25        0.06
  J_194                JUNCTION     0.09     1.00   268.28     0  00:19        0.30
  J_197                JUNCTION     0.45     5.83   273.33     0  00:23        1.78
  J_198                JUNCTION     0.10     1.00   273.82     0  00:16        0.30
  J_199                JUNCTION     0.14     1.32   273.62     0  00:17        0.40
  J_200                JUNCTION     0.10     1.00   272.99     0  00:17        0.30
  J_201                JUNCTION     0.11     1.00   269.77     0  00:18        0.30
  J_202                JUNCTION     0.07     0.32   266.23     0  00:25        0.10
  J_205                JUNCTION     0.22     0.79   251.08     0  00:21        0.24
  J_206                JUNCTION     0.21     0.57   251.39     0  00:25        0.17
  J_209                JUNCTION     0.21     1.07   255.21     0  00:18        0.33
  J_210                JUNCTION     0.22     1.08   255.64     0  00:21        0.33
  J_212                JUNCTION     0.04     0.22   248.88     0  00:24        0.07
  J_213                JUNCTION     0.05     1.00   252.89     0  00:22        0.30
  J_215                JUNCTION     0.28     1.30   246.62     0  00:24        0.40
  J_216                JUNCTION     0.31     1.35   244.36     0  00:25        0.41
  J_217                JUNCTION     0.17     1.05   244.36     0  00:25        0.32
  J_221                JUNCTION     0.24     1.20   258.64     0  00:17        0.37
  J_222                JUNCTION     0.22     1.10   257.74     0  00:21        0.34
  J_223                JUNCTION     0.21     1.19   256.84     0  00:21        0.36
  J_225                JUNCTION     0.07     1.00   272.89     0  00:17        0.30
  J_226                JUNCTION     0.10     1.26   272.89     0  00:17        0.38
  J_227                JUNCTION     0.13     1.84   272.99     0  00:17        0.56
  J_229                JUNCTION     0.01     0.11   277.44     0  00:25        0.03
  J_232                JUNCTION     0.10     1.75   264.92     0  00:22        0.53
  J_233                JUNCTION     0.07     1.28   264.95     0  00:22        0.39
  J_234                JUNCTION     0.05     1.00   264.93     0  00:21        0.30
  J_236                JUNCTION     0.10     1.00   263.56     0  00:22        0.30
  J_239                JUNCTION     0.02     0.11   264.45     0  00:25        0.03
  J_243                JUNCTION     0.03     0.17   264.23     0  00:25        0.05
  J_246                JUNCTION     0.06     0.74   265.45     0  00:25        0.22
  J_249                JUNCTION     0.06     0.28   256.17     0  00:25        0.09
  STAAT337             OUTFALL      0.10     0.38   266.38     0  00:24        0.12
  61232819             OUTFALL      0.30     1.10   243.78     0  00:25        0.33
  62236032             OUTFALL      0.06     0.21   265.62     0  00:25        0.07
  RRBAnneke            OUTFALL      0.08     0.40   262.91     0  00:25        0.12
  
  
  *******************
  Node Inflow Summary
  *******************
  
  -------------------------------------------------------------------------------------------------
                                  Maximum  Maximum                  Lateral       Total        Flow
                                  Lateral    Total  Time of Max      Inflow      Inflow     Balance
                                   Inflow   Inflow   Occurrence      Volume      Volume       Error
  Node                 Type           CMS      CMS  days hr:min    10^6 ltr    10^6 ltr     Percent
  -------------------------------------------------------------------------------------------------
  J_1                  JUNCTION     0.205    0.214     0  00:20      0.0963       0.153      -0.045
  J_2                  JUNCTION     0.244    0.244     0  00:25       0.114       0.114      -0.172
  J_3                  JUNCTION     0.272    0.339     0  00:25       0.131       0.197      -0.112
  J_4                  JUNCTION     0.290    0.373     0  00:25       0.136       0.246      -0.079
  J_5                  JUNCTION     0.053    0.152     0  00:25      0.0435       0.202      -0.038
  J_6                  JUNCTION     0.043    0.059     0  00:22      0.0453      0.0455      -0.397
  J_7                  JUNCTION     0.047    0.132     0  00:21      0.0435      0.0915      -0.437
  J_8                  JUNCTION     0.051    0.148     0  00:26      0.0483       0.141      -0.383
  J_9                  JUNCTION     0.073    0.330     0  00:25      0.0717       0.337       0.089
  J_10                 JUNCTION     0.132    0.592     0  00:25       0.129       0.647      -0.165
  J_11                 JUNCTION     0.113    0.188     0  00:25        0.12       0.199      -0.042
  J_12                 JUNCTION     0.075    0.075     0  00:25      0.0794      0.0794      -0.021
  J_13                 JUNCTION     0.162    0.324     0  00:25       0.161        0.33      -0.076
  J_14                 JUNCTION     0.096    0.161     0  00:25       0.101       0.169      -0.021
  J_15                 JUNCTION     0.066    0.066     0  00:25      0.0674      0.0674      -0.021
  J_16                 JUNCTION     0.094    0.691     0  00:25      0.0912        1.02       0.187
  J_17                 JUNCTION     0.087    0.087     0  00:25      0.0762      0.0762      -0.180
  J_18                 JUNCTION     0.092    0.202     0  00:21      0.0926       0.201      -0.144
  J_20                 JUNCTION     0.155    0.155     0  00:25       0.118       0.118      -0.144
  J_21                 JUNCTION     0.142    0.237     0  00:25      0.0977       0.187      -0.021
  J_23                 JUNCTION     0.063    0.239     0  00:25      0.0677       0.263      -0.181
  J_24                 JUNCTION     0.055    0.858     0  00:25      0.0522       0.824      -0.116
  J_25                 JUNCTION     0.064    0.564     0  00:25      0.0609       0.507       0.095
  J_26                 JUNCTION     0.112    0.263     0  00:25       0.113       0.259      -0.112
  J_27                 JUNCTION     0.117    0.154     0  00:21       0.109       0.146      -0.098
  J_28                 JUNCTION     0.057    0.057     0  00:25      0.0413      0.0413      -0.517
  J_29                 JUNCTION     0.086    2.884     0  00:22      0.0972        6.85      -0.043
  J_30                 JUNCTION     0.077    2.601     0  00:25      0.0831        6.86      -0.002
  J_31                 JUNCTION     0.076    2.154     0  00:25      0.0764        6.67      -0.000
  J_32                 JUNCTION     0.081    2.235     0  00:25      0.0828        6.75      -0.001
  J_33                 JUNCTION     0.046    3.973     0  00:24      0.0506        8.91      -0.023
  J_34                 JUNCTION     0.078    0.501     0  00:25      0.0562       0.818      -0.100
  J_35                 JUNCTION     0.130    0.291     0  00:25       0.072       0.263      -0.079
  J_36                 JUNCTION     0.176    0.340     0  00:25      0.0977       0.244      -0.064
  J_41                 JUNCTION     0.161    0.203     0  00:25      0.0994       0.106      -0.022
  J_49                 JUNCTION     0.109    0.109     0  00:25      0.0921      0.0921      -0.210
  J_55                 JUNCTION     0.084    0.729     0  00:25      0.0889        1.19       0.018
  J_57                 JUNCTION     0.156    0.386     0  00:21       0.157       0.784      -0.007
  J_58                 JUNCTION     0.117    0.318     0  00:26       0.127       0.637      -0.042
  J_59                 JUNCTION     0.068    0.285     0  00:26      0.0713        0.54      -0.020
  J_60                 JUNCTION     0.111    0.409     0  00:25        0.11       0.537      -0.024
  J_61                 JUNCTION     0.124    0.454     0  00:25       0.124       0.459      -0.058
  J_64                 JUNCTION     0.119    0.119     0  00:25       0.126       0.126      -0.130
  J_65                 JUNCTION     0.122    0.868     0  00:25       0.131        1.29       0.177
  J_66                 JUNCTION     0.101    3.485     0  00:24       0.118        7.26      -0.096
  J_67                 JUNCTION     0.179    0.795     0  00:25       0.181        1.42       0.072
  J_68                 JUNCTION     0.123    0.852     0  00:25       0.127        1.32      -0.015
  J_71                 JUNCTION     0.111    0.264     0  00:25       0.113       0.315      -0.053
  J_73                 JUNCTION     0.073    0.117     0  00:25      0.0788       0.123      -0.003
  J_74                 JUNCTION     0.123    0.239     0  00:25       0.128       0.252      -0.023
  J_75                 JUNCTION     0.115    0.355     0  00:25       0.116       0.367      -0.043
  J_76                 JUNCTION     0.140    0.493     0  00:23        0.14       0.508      -0.094
  J_77                 JUNCTION     0.059    1.200     0  00:25      0.0601        1.49      -0.029
  J_79                 JUNCTION     0.050    0.847     0  00:25      0.0458        1.28       0.139
  J_80                 JUNCTION     0.055    0.829     0  00:23      0.0604        1.24      -0.027
  J_82                 JUNCTION     0.063    0.568     0  00:22      0.0637       0.918      -0.087
  J_84                 JUNCTION     0.079    0.428     0  00:25      0.0822         0.6       0.004
  J_86                 JUNCTION     0.138    0.238     0  00:25       0.135       0.213      -0.195
  J_87                 JUNCTION     0.108    0.108     0  00:25      0.0785      0.0785      -0.434
  J_88                 JUNCTION     0.068    0.068     0  00:25      0.0496      0.0496      -0.136
  J_89                 JUNCTION     0.052    0.500     0  00:25      0.0482       0.887      -0.099
  J_90                 JUNCTION     0.090    0.334     0  00:25      0.0918       0.417       0.221
  J_91                 JUNCTION     0.139    0.731     0  00:21       0.143       0.936      -0.058
  J_95                 JUNCTION     0.052    1.537     0  00:25      0.0538        2.38      -0.059
  J_97                 JUNCTION     0.111    1.069     0  00:25        0.12        2.26       0.111
  J_100                JUNCTION     0.134    0.464     0  00:25       0.137       0.873       0.001
  J_101                JUNCTION     0.150    0.510     0  00:25       0.156       0.803      -0.199
  J_102                JUNCTION     0.156    0.424     0  00:25       0.159       0.665       0.265
  J_103                JUNCTION     0.099    0.481     0  00:23       0.102       0.568      -0.019
  J_105                JUNCTION     0.092    0.092     0  00:25      0.0916      0.0918      -0.267
  J_107                JUNCTION     0.137    0.395     0  00:25       0.143       0.412      -0.152
  J_108                JUNCTION     0.137    0.258     0  00:25       0.142        0.27      -0.002
  J_109                JUNCTION     0.125    0.125     0  00:25       0.128       0.128      -0.123
  J_110                JUNCTION     0.155    0.290     0  00:25       0.161       0.374      -0.024
  J_111                JUNCTION     0.084    0.084     0  00:25      0.0744      0.0744      -0.377
  J_112                JUNCTION     0.148    0.162     0  00:20       0.132       0.185      -0.148
  J_113                JUNCTION     0.125    0.262     0  00:25       0.119       0.302      -0.037
  J_114                JUNCTION     0.094    0.501     0  00:22      0.0983       0.645       0.039
  J_115                JUNCTION     0.054    1.013     0  00:23      0.0566        1.37       0.046
  J_116                JUNCTION     0.081    0.795     0  00:25      0.0802        1.38      -0.023
  J_117                JUNCTION     0.109    0.823     0  00:20       0.111        1.46      -0.039
  J_118                JUNCTION     0.125    0.905     0  00:25       0.128        1.59      -0.034
  J_119                JUNCTION     0.161    1.642     0  00:25       0.166        2.95      -0.022
  J_120                JUNCTION     0.132    0.226     0  00:25       0.137       0.236      -0.098
  J_123                JUNCTION     0.096    0.562     0  00:23      0.0981       0.742      -0.077
  J_126                JUNCTION     0.122    0.228     0  00:25       0.128       0.242      -0.094
  J_127                JUNCTION     0.106    0.106     0  00:25       0.113       0.113      -0.058
  J_128                JUNCTION     0.095    0.095     0  00:25      0.0995      0.0995      -0.194
  J_130                JUNCTION     0.135    0.215     0  00:16      0.0638       0.189      -0.228
  J_131                JUNCTION     0.067    0.185     0  00:17      0.0327       0.149      -0.287
  J_132                JUNCTION     0.086    0.211     0  00:25       0.049       0.159      -0.040
  J_133                JUNCTION     0.134    0.255     0  00:25      0.0596       0.167      -0.126
  J_134                JUNCTION     0.195    0.324     0  00:25       0.129       0.196      -0.249
  J_136                JUNCTION     0.141    0.320     0  00:25       0.138       0.374      -0.052
  J_137                JUNCTION     0.127    0.286     0  00:25       0.119       0.263      -0.096
  J_138                JUNCTION     0.163    0.163     0  00:25       0.145       0.145      -0.053
  J_139                JUNCTION     0.172    0.578     0  00:22       0.152       0.825       0.039
  J_140                JUNCTION     0.132    0.429     0  00:21       0.118       0.678      -0.036
  J_141                JUNCTION     0.139    0.443     0  00:25       0.124       0.598      -0.289
  J_142                JUNCTION     0.129    0.359     0  00:25       0.118       0.484       0.007
  J_144                JUNCTION     0.138    0.236     0  00:21       0.127       0.304       0.005
  J_146                JUNCTION     0.127    0.127     0  00:25       0.118       0.118      -0.121
  J_148                JUNCTION     0.094    0.094     0  00:25      0.0849      0.0849      -0.081
  J_149                JUNCTION     0.096    0.160     0  00:21      0.0841       0.161      -0.066
  J_151                JUNCTION     0.089    0.089     0  00:25      0.0831      0.0831      -0.030
  J_153                JUNCTION     0.047    0.137     0  00:25      0.0362       0.119       0.007
  J_154                JUNCTION     0.024    0.161     0  00:25      0.0193       0.139      -0.020
  J_155                JUNCTION     0.049    0.209     0  00:25      0.0368       0.175      -0.020
  J_156                JUNCTION     0.153    0.751     0  00:25       0.115       0.881       0.087
  J_157                JUNCTION     0.115    0.431     0  00:25      0.0589       0.782      -0.083
  J_158                JUNCTION     0.068    0.389     0  00:22      0.0455       0.789       0.016
  J_161                JUNCTION     0.116    0.502     0  00:25       0.117       0.973       0.032
  J_162                JUNCTION     0.128    0.629     0  00:25       0.135        1.11       0.053
  J_165                JUNCTION     0.113    0.276     0  00:25      0.0945       0.449      -0.010
  J_166                JUNCTION     0.089    0.234     0  00:25      0.0796       0.383      -0.013
  J_167                JUNCTION     0.114    0.259     0  00:25       0.104        0.35      -0.054
  J_168                JUNCTION     0.122    0.276     0  00:25       0.113       0.286      -0.040
  J_169                JUNCTION     0.116    0.206     0  00:25      0.0984       0.183      -0.165
  J_170                JUNCTION     0.089    0.089     0  00:25      0.0849      0.0849      -0.082
  J_172                JUNCTION     0.174    0.260     0  00:25      0.0738       0.232      -0.024
  J_173                JUNCTION     0.172    0.392     0  00:25       0.075         0.3      -0.152
  J_174                JUNCTION     0.227    0.525     0  00:25       0.133       0.508       0.035
  J_176                JUNCTION     0.076    0.316     0  00:21      0.0754       0.366      -0.039
  J_177                JUNCTION     0.086    0.302     0  00:25      0.0889       0.301      -0.173
  J_178                JUNCTION     0.100    0.216     0  00:25       0.103       0.212      -0.153
  J_179                JUNCTION     0.116    0.116     0  00:25       0.109       0.109      -0.048
  J_180                JUNCTION     0.092    0.092     0  00:25      0.0852      0.0852       0.767
  J_182                JUNCTION     0.103    0.173     0  00:25         0.1        0.12      -0.088
  J_185                JUNCTION     0.078    0.231     0  00:25      0.0823       0.244       0.123
  J_186                JUNCTION     0.064    0.296     0  00:25      0.0639       0.421      -0.120
  J_188                JUNCTION     0.086    0.427     0  00:21      0.0848        0.59       0.013
  J_190                JUNCTION     0.100    0.100     0  00:25       0.105       0.105      -0.104
  J_193                JUNCTION     0.108    0.108     0  00:25       0.107       0.107      -0.072
  J_194                JUNCTION     0.065    0.265     0  00:25      0.0598       0.188      -0.047
  J_197                JUNCTION     0.303    0.329     0  00:23       0.198       0.556       0.032
  J_198                JUNCTION     0.384    0.384     0  00:25       0.293       0.293      -0.083
  J_199                JUNCTION     0.348    0.441     0  00:25       0.309       0.508       0.006
  J_200                JUNCTION     0.152    0.381     0  00:25       0.151       0.597       0.144
  J_201                JUNCTION     0.165    0.479     0  00:25       0.168       0.746      -0.143
  J_202                JUNCTION     0.173    0.544     0  00:25       0.163       0.875      -0.026
  J_205                JUNCTION     0.139    1.443     0  00:25       0.147        4.63       0.001
  J_206                JUNCTION     0.144    1.303     0  00:25       0.158        4.49      -0.002
  J_209                JUNCTION     0.124    1.834     0  00:25       0.137        3.57      -0.015
  J_210                JUNCTION     0.135    1.710     0  00:25       0.141        3.44       0.013
  J_212                JUNCTION     0.091    0.258     0  00:25      0.0961       0.262      -0.021
  J_213                JUNCTION     0.175    0.175     0  00:25       0.167       0.167      -0.092
  J_215                JUNCTION     0.107    4.062     0  00:24       0.101        9.01      -0.005
  J_216                JUNCTION     0.112    4.239     0  00:25       0.104        9.18      -0.003
  J_217                JUNCTION     0.064    0.094     0  00:10      0.0579      0.0646      -0.202
  J_221                JUNCTION     0.152    1.635     0  00:25       0.172        3.08       0.003
  J_222                JUNCTION     0.155    1.445     0  00:17       0.165        3.11      -0.000
  J_223                JUNCTION     0.174    1.605     0  00:21       0.188        3.29      -0.001
  J_225                JUNCTION     0.139    0.141     0  00:25       0.064      0.0669      -0.879
  J_226                JUNCTION     0.179    0.211     0  00:25      0.0965        0.13      -0.118
  J_227                JUNCTION     0.255    0.362     0  00:25       0.137       0.229      -0.653
  J_229                JUNCTION     0.069    0.069     0  00:25      0.0299      0.0299      -0.144
  J_232                JUNCTION     0.109    0.220     0  00:22        0.11       0.263      -0.209
  J_233                JUNCTION     0.080    0.161     0  00:21      0.0831       0.155      -0.110
  J_234                JUNCTION     0.089    0.134     0  00:21      0.0887      0.0905      -0.632
  J_236                JUNCTION     0.089    0.320     0  00:25      0.0853       0.476      -0.073
  J_239                JUNCTION     0.097    0.097     0  00:25      0.0979      0.0979      -0.145
  J_243                JUNCTION     0.043    0.043     0  00:25      0.0446      0.0446      -0.021
  J_246                JUNCTION     0.100    0.100     0  00:25       0.105       0.105      -0.122
  J_249                JUNCTION     0.082    0.511     0  00:25      0.0549       0.849      -0.001
  STAAT337             OUTFALL      0.000    0.329     0  00:24           0       0.556       0.000
  61232819             OUTFALL      0.000    4.247     0  00:25           0        9.17       0.000
  62236032             OUTFALL      0.000    0.075     0  00:25           0       0.163       0.000
  RRBAnneke            OUTFALL      0.000    0.345     0  00:25           0       0.433       0.000
  
  
  **********************
  Node Surcharge Summary
  **********************
  
  Surcharging occurs when water rises above the top of the highest conduit.
  ---------------------------------------------------------------------
                                               Max. Height   Min. Depth
                                   Hours       Above Crown    Below Rim
  Node                 Type      Surcharged         Meters       Meters
  ---------------------------------------------------------------------
  J_1                  JUNCTION        0.10          1.489        0.000
  J_2                  JUNCTION        0.17          0.700        0.000
  J_3                  JUNCTION        0.19          0.741        0.000
  J_4                  JUNCTION        0.20          0.700        0.000
  J_5                  JUNCTION        0.17          0.604        0.096
  J_6                  JUNCTION        0.04          0.335        0.265
  J_7                  JUNCTION        0.07          0.567        0.000
  J_8                  JUNCTION        0.10          0.928        0.000
  J_9                  JUNCTION        0.14          1.332        0.579
  J_10                 JUNCTION        0.17          0.500        0.000
  J_13                 JUNCTION        0.11          0.500        0.000
  J_18                 JUNCTION        0.08          0.700        0.000
  J_20                 JUNCTION        0.08          0.700        0.000
  J_26                 JUNCTION        0.09          0.915        0.881
  J_27                 JUNCTION        0.07          0.917        0.308
  J_28                 JUNCTION        0.06          0.700        0.000
  J_29                 JUNCTION        0.07          0.000        0.000
  J_30                 JUNCTION        0.23          0.000        0.000
  J_34                 JUNCTION        0.19          0.503        0.000
  J_35                 JUNCTION        0.17          0.700        0.000
  J_36                 JUNCTION        0.14          0.700        0.000
  J_41                 JUNCTION        0.09          0.700        0.000
  J_49                 JUNCTION        0.08          0.700        0.000
  J_55                 JUNCTION        0.24          1.665        1.600
  J_57                 JUNCTION        0.20          1.538        0.711
  J_58                 JUNCTION        0.23          1.473        0.000
  J_59                 JUNCTION        0.22          1.295        0.000
  J_60                 JUNCTION        0.21          1.030        0.000
  J_61                 JUNCTION        0.18          1.111        0.000
  J_66                 JUNCTION        0.84          0.000        0.000
  J_68                 JUNCTION        0.24          1.035        0.000
  J_75                 JUNCTION        0.06          0.500        0.000
  J_76                 JUNCTION        0.02          0.077        0.506
  J_77                 JUNCTION        0.09          0.100        0.000
  J_80                 JUNCTION        0.06          0.100        0.000
  J_84                 JUNCTION        0.25          0.700        0.000
  J_86                 JUNCTION        0.07          0.700        0.000
  J_87                 JUNCTION        0.06          0.700        0.000
  J_88                 JUNCTION        0.13          0.341        0.259
  J_89                 JUNCTION        0.12          0.200        0.000
  J_91                 JUNCTION        0.07          0.200        0.000
  J_95                 JUNCTION        0.16          0.000        0.000
  J_101                JUNCTION        0.17          0.156        0.000
  J_102                JUNCTION        0.17          0.527        0.000
  J_103                JUNCTION        0.13          0.500        0.000
  J_105                JUNCTION        0.12          0.303        0.197
  J_107                JUNCTION        0.08          0.600        0.000
  J_109                JUNCTION        0.08          0.700        0.000
  J_111                JUNCTION        0.08          0.700        0.000
  J_112                JUNCTION        0.09          1.200        0.000
  J_113                JUNCTION        0.09          0.700        0.000
  J_115                JUNCTION        0.16          0.570        0.000
  J_116                JUNCTION        0.20          0.277        0.000
  J_117                JUNCTION        0.08          0.123        0.000
  J_118                JUNCTION        0.13          0.000        0.000
  J_119                JUNCTION        0.07          0.000        0.000
  J_120                JUNCTION        0.09          0.700        0.000
  J_123                JUNCTION        0.20          1.383        1.682
  J_126                JUNCTION        0.09          0.700        0.000
  J_128                JUNCTION        0.08          0.700        0.000
  J_130                JUNCTION        0.24          7.218        0.532
  J_131                JUNCTION        0.22          6.337        0.000
  J_132                JUNCTION        0.23          5.196        0.000
  J_133                JUNCTION        0.21          3.196        0.000
  J_134                JUNCTION        0.19          0.700        0.000
  J_136                JUNCTION        0.17          0.700        0.000
  J_137                JUNCTION        0.08          0.700        0.000
  J_138                JUNCTION        0.06          0.700        0.000
  J_140                JUNCTION        0.08          0.200        0.000
  J_141                JUNCTION        0.10          0.200        0.000
  J_142                JUNCTION        0.07          0.300        0.000
  J_144                JUNCTION        0.07          0.300        0.000
  J_146                JUNCTION        0.08          0.700        0.000
  J_148                JUNCTION        0.07          0.700        0.000
  J_149                JUNCTION        0.07          0.814        0.025
  J_156                JUNCTION        0.17          0.200        0.000
  J_157                JUNCTION        0.21          0.200        0.000
  J_158                JUNCTION        0.05          0.086        0.114
  J_166                JUNCTION        0.22          0.700        0.000
  J_167                JUNCTION        0.19          0.700        0.000
  J_168                JUNCTION        0.14          0.700        0.000
  J_169                JUNCTION        0.08          0.700        0.000
  J_170                JUNCTION        0.04          0.342        0.358
  J_172                JUNCTION        0.28          7.553        0.000
  J_173                JUNCTION        0.31          6.985        0.000
  J_174                JUNCTION        0.34          4.941        0.000
  J_176                JUNCTION        0.10          0.641        0.000
  J_177                JUNCTION        0.08          0.500        0.000
  J_178                JUNCTION        0.05          0.500        0.000
  J_180                JUNCTION        0.05          0.440        0.260
  J_182                JUNCTION        0.21          0.700        0.000
  J_186                JUNCTION        0.13          0.592        0.008
  J_188                JUNCTION        0.07          0.699        0.105
  J_194                JUNCTION        0.17          0.600        0.000
  J_197                JUNCTION        0.38          5.430        0.166
  J_198                JUNCTION        0.17          0.600        0.000
  J_199                JUNCTION        0.22          0.919        0.000
  J_200                JUNCTION        0.15          0.565        0.000
  J_201                JUNCTION        0.14          0.200        0.000
  J_209                JUNCTION        0.14          0.000        0.000
  J_213                JUNCTION        0.05          0.700        0.000
  J_221                JUNCTION        0.18          0.000        0.000
  J_222                JUNCTION        0.07          0.000        0.000
  J_225                JUNCTION        0.17          0.700        0.000
  J_226                JUNCTION        0.18          0.956        0.000
  J_227                JUNCTION        0.18          1.437        0.000
  J_232                JUNCTION        0.12          1.251        3.189
  J_233                JUNCTION        0.09          0.780        0.131
  J_234                JUNCTION        0.07          0.500        0.000
  J_236                JUNCTION        0.11          0.400        0.000
  J_246                JUNCTION        0.07          0.436        0.264
  
  
  *********************
  Node Flooding Summary
  *********************
  
  Flooding refers to all water that overflows a node, whether it ponds or not.
  --------------------------------------------------------------------------
                                                             Total   Maximum
                                 Maximum   Time of Max       Flood    Ponded
                        Hours       Rate    Occurrence      Volume     Depth
  Node                 Flooded       CMS   days hr:min    10^6 ltr    Meters
  --------------------------------------------------------------------------
  J_1                     0.01     0.054      0  00:20       0.000     0.000
  J_2                     0.14     0.177      0  00:25       0.048     0.000
  J_3                     0.17     0.256      0  00:25       0.087     0.000
  J_4                     0.17     0.274      0  00:25       0.088     0.000
  J_7                     0.01     0.073      0  00:21       0.000     0.000
  J_8                     0.04     0.012      0  00:22       0.001     0.000
  J_10                    0.13     0.320      0  00:25       0.100     0.000
  J_13                    0.07     0.051      0  00:25       0.012     0.000
  J_18                    0.07     0.025      0  00:25       0.006     0.000
  J_20                    0.07     0.046      0  00:25       0.010     0.000
  J_28                    0.06     0.034      0  00:21       0.004     0.000
  J_29                    0.07     0.359      0  00:22       0.076     0.000
  J_30                    0.23     0.522      0  00:25       0.269     0.000
  J_34                    0.14     0.072      0  00:25       0.025     0.000
  J_35                    0.16     0.139      0  00:25       0.051     0.000
  J_36                    0.13     0.178      0  00:25       0.053     0.000
  J_41                    0.09     0.202      0  00:25       0.049     0.000
  J_49                    0.07     0.018      0  00:21       0.003     0.000
  J_58                    0.08     0.043      0  00:25       0.010     0.000
  J_59                    0.09     0.103      0  00:25       0.030     0.000
  J_60                    0.11     0.222      0  00:25       0.069     0.000
  J_61                    0.08     0.156      0  00:25       0.032     0.000
  J_66                    0.84     2.326      0  00:24       2.938     0.000
  J_68                    0.12     0.236      0  00:25       0.073     0.000
  J_75                    0.02     0.005      0  00:24       0.000     0.000
  J_77                    0.09     0.179      0  00:25       0.040     0.000
  J_80                    0.05     0.053      0  00:22       0.005     0.000
  J_84                    0.24     0.223      0  00:25       0.103     0.000
  J_86                    0.07     0.047      0  00:25       0.010     0.000
  J_87                    0.06     0.021      0  00:21       0.001     0.000
  J_89                    0.10     0.114      0  00:25       0.031     0.000
  J_91                    0.06     0.090      0  00:21       0.014     0.000
  J_95                    0.16     0.579      0  00:25       0.239     0.000
  J_101                   0.14     0.179      0  00:25       0.068     0.000
  J_102                   0.09     0.064      0  00:25       0.017     0.000
  J_103                   0.11     0.213      0  00:25       0.062     0.000
  J_107                   0.08     0.150      0  00:25       0.036     0.000
  J_109                   0.07     0.014      0  00:21       0.001     0.000
  J_111                   0.08     0.082      0  00:25       0.021     0.000
  J_112                   0.07     0.013      0  00:24       0.003     0.000
  J_113                   0.08     0.074      0  00:25       0.020     0.000
  J_115                   0.08     0.298      0  00:23       0.069     0.000
  J_116                   0.09     0.124      0  00:25       0.035     0.000
  J_117                   0.01     0.076      0  00:20       0.000     0.000
  J_118                   0.13     0.292      0  00:25       0.097     0.000
  J_119                   0.07     0.159      0  00:25       0.037     0.000
  J_120                   0.08     0.092      0  00:25       0.024     0.000
  J_126                   0.08     0.083      0  00:25       0.022     0.000
  J_128                   0.06     0.025      0  00:21       0.000     0.000
  J_131                   0.07     0.058      0  00:25       0.011     0.000
  J_132                   0.08     0.090      0  00:25       0.023     0.000
  J_133                   0.10     0.126      0  00:25       0.034     0.000
  J_134                   0.18     0.323      0  00:25       0.143     0.000
  J_136                   0.17     0.161      0  00:25       0.060     0.000
  J_137                   0.08     0.107      0  00:25       0.027     0.000
  J_138                   0.05     0.004      0  00:25       0.001     0.000
  J_140                   0.07     0.058      0  00:21       0.005     0.000
  J_141                   0.09     0.148      0  00:25       0.039     0.000
  J_142                   0.06     0.063      0  00:21       0.011     0.000
  J_144                   0.06     0.031      0  00:21       0.004     0.000
  J_146                   0.07     0.038      0  00:25       0.009     0.000
  J_148                   0.07     0.036      0  00:25       0.008     0.000
  J_156                   0.16     0.435      0  00:25       0.157     0.000
  J_157                   0.17     0.118      0  00:25       0.039     0.000
  J_166                   0.19     0.070      0  00:25       0.029     0.000
  J_167                   0.18     0.113      0  00:25       0.047     0.000
  J_168                   0.13     0.132      0  00:25       0.040     0.000
  J_169                   0.07     0.051      0  00:25       0.011     0.000
  J_172                   0.06     0.040      0  00:25       0.005     0.000
  J_173                   0.08     0.093      0  00:25       0.020     0.000
  J_174                   0.10     0.392      0  00:25       0.106     0.000
  J_176                   0.05     0.061      0  00:23       0.009     0.000
  J_177                   0.05     0.076      0  00:22       0.011     0.000
  J_178                   0.01     0.049      0  00:22       0.000     0.000
  J_182                   0.12     0.173      0  00:25       0.051     0.000
  J_194                   0.12     0.265      0  00:25       0.075     0.000
  J_198                   0.15     0.291      0  00:25       0.094     0.000
  J_199                   0.14     0.212      0  00:25       0.062     0.000
  J_200                   0.09     0.067      0  00:25       0.018     0.000
  J_201                   0.13     0.107      0  00:25       0.035     0.000
  J_209                   0.14     0.315      0  00:25       0.111     0.000
  J_213                   0.05     0.008      0  00:22       0.001     0.000
  J_221                   0.18     0.353      0  00:25       0.133     0.000
  J_222                   0.07     0.040      0  00:21       0.008     0.000
  J_225                   0.16     0.141      0  00:25       0.051     0.000
  J_226                   0.16     0.209      0  00:25       0.079     0.000
  J_227                   0.15     0.330      0  00:25       0.116     0.000
  J_234                   0.06     0.115      0  00:21       0.019     0.000
  J_236                   0.06     0.020      0  00:25       0.003     0.000
  
  
  ***********************
  Outfall Loading Summary
  ***********************
  
  -----------------------------------------------------------
                         Flow       Avg       Max       Total
                         Freq      Flow      Flow      Volume
  Outfall Node           Pcnt       CMS       CMS    10^6 ltr
  -----------------------------------------------------------
  STAAT337              81.57     0.063     0.329       0.556
  61232819              97.18     0.874     4.247       9.173
  62236032              45.28     0.033     0.075       0.163
  RRBAnneke             59.72     0.067     0.345       0.433
  -----------------------------------------------------------
  System                70.94     1.038     4.993      10.326
  
  
  ********************
  Link Flow Summary
  ********************
  
  -----------------------------------------------------------------------------
                                 Maximum  Time of Max   Maximum    Max/    Max/
                                  |Flow|   Occurrence   |Veloc|    Full    Full
  Link                 Type          CMS  days hr:min     m/sec    Flow   Depth
  -----------------------------------------------------------------------------
  nC_180               CONDUIT     0.392     0  00:21      3.15    1.06    1.00
  C_1                  CONDUIT     0.345     0  00:25      1.85    1.26    0.90
  C_2                  CONDUIT     0.075     0  00:25      1.20    1.08    0.86
  C_3                  CONDUIT     4.247     0  00:25      3.32    1.22    0.92
  C_4                  CONDUIT     0.329     0  00:24      2.63    2.19    0.97
  C_6                  CONDUIT     0.067     0  00:21      0.95    0.96    1.00
  C_7                  CONDUIT     0.083     0  00:20      1.17    1.03    1.00
  C_8                  CONDUIT     0.131     0  00:17      1.87    1.40    1.00
  C_9                  CONDUIT     0.079     0  00:25      0.79    0.53    1.00
  C_10                 CONDUIT     0.136     0  00:26      0.86    0.50    1.00
  C_11                 CONDUIT     0.161     0  00:27      0.96    0.59    1.00
  C_12                 CONDUIT     0.188     0  00:25      1.33    0.26    0.67
  C_13                 CONDUIT     0.075     0  00:25      1.96    0.47    0.53
  C_14                 CONDUIT     0.161     0  00:25      1.66    0.41    0.72
  C_15                 CONDUIT     0.066     0  00:25      1.81    0.38    0.51
  C_16                 CONDUIT     0.087     0  00:25      0.83    0.29    0.53
  C_18                 CONDUIT     0.116     0  00:21      1.70    1.06    1.00
  C_20                 CONDUIT     0.175     0  00:25      2.94    1.01    0.81
  C_21                 CONDUIT     0.239     0  00:25      1.07    0.06    0.57
  C_22                 CONDUIT     0.263     0  00:25      2.11    1.75    0.97
  C_23                 CONDUIT     0.151     0  00:25      1.20    1.01    1.00
  C_24                 CONDUIT     0.055     0  00:25      0.85    0.79    1.00
  C_25                 CONDUIT     2.524     0  00:25      3.21    1.46    1.00
  C_26                 CONDUIT     2.078     0  00:21      2.76    1.20    0.91
  C_27                 CONDUIT     2.154     0  00:25      2.76    0.62    0.57
  C_28                 CONDUIT     2.235     0  00:25      2.93    0.74    0.64
  C_29                 CONDUIT     0.162     0  00:27      2.29    1.07    1.00
  C_30                 CONDUIT     0.162     0  00:20      2.29    1.00    1.00
  C_31                 CONDUIT     0.164     0  00:25      2.32    1.09    1.00
  C_32                 CONDUIT     0.691     0  00:25      1.97    0.21    0.66
  C_33                 CONDUIT     0.098     0  00:20      1.39    1.41    1.00
  C_34                 CONDUIT     0.848     0  00:24      1.02    0.24    0.90
  C_35                 CONDUIT     0.564     0  00:25      2.17    0.56    0.74
  C_36                 CONDUIT     0.237     0  00:25      2.49    0.46    0.71
  C_37                 CONDUIT     0.095     0  00:25      1.54    1.36    0.82
  C_38                 CONDUIT     0.291     0  00:17      1.67    1.07    1.00
  C_39                 CONDUIT     0.273     0  00:25      1.39    1.00    1.00
  C_41                 CONDUIT     0.386     0  00:21      1.45    0.87    1.00
  C_42                 CONDUIT     0.319     0  00:26      1.63    1.17    1.00
  C_43                 CONDUIT     0.286     0  00:26      1.45    1.05    1.00
  C_44                 CONDUIT     0.266     0  00:26      1.49    0.98    1.00
  C_45                 CONDUIT     0.298     0  00:25      1.52    1.09    1.00
  C_46                 CONDUIT     0.330     0  00:25      1.68    1.21    1.00
  C_47                 CONDUIT     0.119     0  00:25      1.69    0.20    0.65
  C_49                 CONDUIT     0.795     0  00:25      2.28    0.49    0.75
  C_50                 CONDUIT     0.616     0  00:20      3.14    1.34    1.00
  C_51                 CONDUIT     0.729     0  00:25      2.58    1.64    1.00
  C_52                 CONDUIT     0.264     0  00:25      1.62    0.17    0.64
  C_53                 CONDUIT     0.152     0  00:25      2.62    1.01    0.78
  C_54                 CONDUIT     0.117     0  00:25      2.00    0.94    0.77
  C_55                 CONDUIT     0.239     0  00:25      2.25    0.63    0.79
  C_56                 CONDUIT     0.354     0  00:23      1.80    1.30    1.00
  C_57                 CONDUIT     0.490     0  00:25      1.73    0.79    1.00
  C_58                 CONDUIT     0.845     0  00:24      1.73    0.38    0.82
  C_59                 CONDUIT     0.797     0  00:25      2.85    1.32    0.96
  C_60                 CONDUIT     0.526     0  00:25      2.69    1.35    1.00
  C_61                 CONDUIT     0.205     0  00:14      2.97    1.13    1.00
  C_62                 CONDUIT     0.191     0  00:23      2.70    1.00    1.00
  C_63                 CONDUIT     0.100     0  00:24      1.47    1.00    1.00
  C_65                 CONDUIT     0.068     0  00:25      0.79    0.38    1.00
  C_66                 CONDUIT     0.334     0  00:25      3.20    0.95    0.89
  C_67                 CONDUIT     0.652     0  00:21      3.41    1.06    1.00
  C_68                 CONDUIT     1.021     0  00:23      3.61    2.30    1.00
  C_69                 CONDUIT     0.958     0  00:20      3.54    1.11    1.00
  C_70                 CONDUIT     1.069     0  00:24      3.17    0.61    0.78
  C_71                 CONDUIT     0.464     0  00:25      3.16    0.49    0.75
  C_72                 CONDUIT     0.331     0  00:20      2.65    1.15    0.98
  C_73                 CONDUIT     0.360     0  00:23      1.83    1.32    1.00
  C_74                 CONDUIT     0.282     0  00:26      1.44    1.03    1.00
  C_75                 CONDUIT     0.092     0  00:23      1.02    0.28    1.00
  C_76                 CONDUIT     0.288     0  00:21      2.29    1.17    1.00
  C_77                 CONDUIT     0.258     0  00:25      2.31    0.78    0.83
  C_78                 CONDUIT     0.121     0  00:25      1.75    1.45    0.94
  C_80                 CONDUIT     0.064     0  00:26      0.96    0.91    1.00
  C_81                 CONDUIT     0.138     0  00:23      1.95    1.16    1.00
  C_82                 CONDUIT     0.188     0  00:22      2.73    1.13    1.00
  C_83                 CONDUIT     0.715     0  00:24      2.53    1.61    1.00
  C_84                 CONDUIT     0.733     0  00:20      2.62    1.65    1.00
  C_85                 CONDUIT     0.781     0  00:25      2.06    1.17    1.00
  C_86                 CONDUIT     0.771     0  00:29      2.02    1.15    1.00
  C_87                 CONDUIT     0.135     0  00:25      2.00    1.15    0.92
  C_88                 CONDUIT     0.562     0  00:23      1.99    1.27    1.00
  C_89                 CONDUIT     0.472     0  00:25      1.67    1.06    1.00
  C_90                 CONDUIT     0.145     0  00:22      2.07    1.26    0.97
  C_91                 CONDUIT     0.106     0  00:25      1.72    0.73    0.82
  C_93                 CONDUIT     0.094     0  00:24      1.33    1.00    1.00
  C_94                 CONDUIT     0.116     0  00:25      1.08    0.77    1.00
  C_95                 CONDUIT     0.124     0  00:23      1.76    1.78    1.00
  C_96                 CONDUIT     0.121     0  00:23      1.71    1.73    1.00
  C_97                 CONDUIT     0.128     0  00:22      1.81    1.83    1.00
  C_98                 CONDUIT     0.159     0  00:18      2.24    1.00    1.00
  C_99                 CONDUIT     0.179     0  00:22      2.53    1.00    1.00
  C_100                CONDUIT     0.158     0  00:24      2.24    1.00    1.00
  C_101                CONDUIT     0.409     0  00:22      2.12    1.50    0.99
  C_102                CONDUIT     0.318     0  00:26      2.54    1.21    1.00
  C_103                CONDUIT     0.304     0  00:24      2.59    1.09    1.00
  C_104                CONDUIT     0.150     0  00:21      2.13    1.67    1.00
  C_105                CONDUIT     0.107     0  00:21      1.54    1.53    1.00
  C_107                CONDUIT     0.074     0  00:21      1.11    1.06    1.00
  C_109                CONDUIT     0.089     0  00:25      2.01    0.62    0.60
[...]
  C_78                    1.00   0.03  0.00  0.00  0.67  0.31  0.00  0.00  0.35  0.00
  C_80                    1.00   0.03  0.00  0.00  0.97  0.00  0.00  0.00  0.94  0.00
  C_81                    1.00   0.03  0.00  0.00  0.62  0.36  0.00  0.00  0.94  0.00
  C_82                    1.00   0.03  0.00  0.00  0.00  0.00  0.00  0.97  0.00  0.00
  C_83                    1.00   0.03  0.00  0.00  0.09  0.00  0.00  0.88  0.00  0.00
  C_84                    1.00   0.03  0.00  0.00  0.04  0.00  0.00  0.94  0.00  0.00
  C_85                    1.00   0.03  0.00  0.00  0.06  0.00  0.00  0.92  0.00  0.00
  C_86                    1.00   0.03  0.00  0.00  0.94  0.03  0.00  0.00  0.89  0.00
  C_87                    1.00   0.03  0.00  0.00  0.52  0.45  0.00  0.00  0.13  0.00
  C_88                    1.00   0.03  0.00  0.00  0.97  0.00  0.00  0.00  0.88  0.00
  C_89                    1.00   0.03  0.00  0.00  0.81  0.16  0.00  0.00  0.79  0.00
  C_90                    1.00   0.03  0.00  0.00  0.00  0.00  0.00  0.97  0.00  0.00
  C_91                    1.00   0.03  0.00  0.00  0.67  0.30  0.00  0.00  0.97  0.00
  C_93                    1.00   0.03  0.00  0.00  0.97  0.01  0.00  0.00  0.94  0.00
  C_94                    1.00   0.03  0.00  0.00  0.96  0.01  0.00  0.00  0.87  0.00
  C_95                    1.00   0.03  0.00  0.00  0.87  0.11  0.00  0.00  0.63  0.00
  C_96                    1.00   0.03  0.00  0.00  0.97  0.00  0.00  0.00  0.89  0.00
  C_97                    1.00   0.03  0.00  0.00  0.96  0.01  0.00  0.00  0.89  0.00
  C_98                    1.00   0.03  0.00  0.00  0.62  0.36  0.00  0.00  0.89  0.00
  C_99                    1.00   0.03  0.00  0.00  0.54  0.43  0.00  0.00  0.62  0.00
  C_100                   1.00   0.03  0.00  0.00  0.64  0.33  0.00  0.00  0.93  0.00
  C_101                   1.00   0.03  0.00  0.00  0.02  0.00  0.00  0.95  0.00  0.00
  C_102                   1.00   0.03  0.00  0.00  0.03  0.00  0.00  0.94  0.00  0.00
  C_103                   1.00   0.03  0.00  0.00  0.03  0.00  0.00  0.94  0.00  0.00
  C_104                   1.00   0.03  0.00  0.00  0.02  0.00  0.00  0.95  0.00  0.00
  C_105                   1.00   0.03  0.00  0.00  0.03  0.00  0.00  0.95  0.00  0.00
  C_107                   1.00   0.03  0.00  0.00  0.97  0.00  0.00  0.00  0.70  0.00
  C_109                   1.00   0.03  0.00  0.00  0.58  0.39  0.00  0.00  0.88  0.00
  C_110                   1.00   0.03  0.00  0.00  0.55  0.43  0.00  0.00  0.97  0.00
  C_111                   1.00   0.03  0.00  0.00  0.51  0.46  0.00  0.00  0.40  0.00
  C_112                   1.00   0.03  0.12  0.00  0.82  0.03  0.00  0.00  0.97  0.00
  C_113                   1.00   0.03  0.00  0.00  0.07  0.00  0.00  0.89  0.00  0.00
  C_114                   1.00   0.03  0.00  0.00  0.02  0.00  0.00  0.95  0.00  0.00
  C_115                   1.00   0.03  0.00  0.00  0.04  0.01  0.00  0.93  0.01  0.00
  C_116                   1.00   0.03  0.00  0.00  0.00  0.00  0.00  0.97  0.00  0.00
  C_117                   1.00   0.03  0.00  0.00  0.00  0.07  0.00  0.90  0.07  0.00
  C_118                   1.00   0.03  0.00  0.00  0.36  0.00  0.00  0.61  0.21  0.00
  C_119                   1.00   0.03  0.01  0.00  0.59  0.37  0.00  0.00  0.97  0.00
  C_120                   1.00   0.03  0.00  0.00  0.23  0.75  0.00  0.00  0.01  0.00
  C_121                   1.00   0.03  0.00  0.00  0.54  0.44  0.00  0.00  0.90  0.00
  C_122                   1.00   0.03  0.00  0.00  0.56  0.41  0.00  0.00  0.68  0.00
  C_123                   1.00   0.03  0.00  0.00  0.60  0.37  0.00  0.00  0.93  0.00
  C_124                   1.00   0.03  0.00  0.00  0.66  0.31  0.00  0.00  0.93  0.00
  C_125                   1.00   0.03  0.00  0.00  0.96  0.01  0.00  0.00  0.85  0.00
  C_126                   1.00   0.03  0.00  0.00  0.95  0.02  0.00  0.00  0.84  0.00
  C_127                   1.00   0.03  0.00  0.00  0.97  0.00  0.00  0.00  0.86  0.00
  C_128                   1.00   0.03  0.00  0.00  0.97  0.00  0.00  0.00  0.93  0.00
  C_129                   1.00   0.03  0.00  0.00  0.97  0.01  0.00  0.00  0.74  0.00
  C_130                   1.00   0.03  0.00  0.00  0.96  0.01  0.00  0.00  0.90  0.00
  C_131                   1.00   0.03  0.00  0.00  0.66  0.32  0.00  0.00  0.92  0.00
  C_132                   1.00   0.03  0.00  0.00  0.03  0.00  0.00  0.94  0.00  0.00
  C_133                   1.00   0.03  0.00  0.00  0.97  0.00  0.00  0.00  0.88  0.00
  C_134                   1.00   0.03  0.00  0.00  0.55  0.42  0.00  0.00  0.64  0.00
  C_135                   1.00   0.03  0.00  0.00  0.02  0.04  0.00  0.91  0.06  0.00
  C_136                   1.00   0.03  0.00  0.00  0.71  0.26  0.00  0.00  0.40  0.00
  C_138                   1.00   0.03  0.00  0.00  0.93  0.04  0.00  0.00  0.97  0.00
  C_140                   1.00   0.03  0.00  0.00  0.96  0.01  0.00  0.00  0.96  0.00
  C_141                   1.00   0.03  0.00  0.00  0.97  0.00  0.00  0.00  0.80  0.00
  C_142                   1.00   0.03  0.00  0.00  0.97  0.00  0.00  0.00  0.85  0.00
  C_144                   1.00   0.03  0.00  0.00  0.97  0.00  0.00  0.00  0.90  0.00
  C_145                   1.00   0.03  0.00  0.00  0.05  0.00  0.00  0.92  0.00  0.00
  C_146                   1.00   0.03  0.00  0.00  0.05  0.00  0.00  0.92  0.00  0.00
  C_147                   1.00   0.03  0.00  0.00  0.00  0.00  0.00  0.97  0.00  0.00
  C_148                   1.00   0.03  0.00  0.00  0.59  0.38  0.00  0.00  0.96  0.00
  C_149                   1.00   0.03  0.00  0.00  0.10  0.02  0.00  0.85  0.08  0.00
  C_150                   1.00   0.03  0.00  0.00  0.00  0.00  0.00  0.97  0.00  0.00
  C_151                   1.00   0.03  0.00  0.00  0.00  0.00  0.00  0.97  0.00  0.00
  C_152                   1.00   0.03  0.00  0.00  0.32  0.01  0.00  0.64  0.25  0.00
  C_153                   1.00   0.03  0.00  0.00  0.07  0.00  0.00  0.90  0.00  0.00
  C_154                   1.00   0.03  0.06  0.00  0.90  0.01  0.00  0.00  0.97  0.00
  C_155                   1.00   0.03  0.00  0.00  0.46  0.52  0.00  0.00  0.47  0.00
  C_156                   1.00   0.03  0.00  0.00  0.00  0.00  0.00  0.97  0.00  0.00
  C_157                   1.00   0.03  0.00  0.00  0.00  0.00  0.00  0.97  0.00  0.00
  C_158                   1.00   0.03  0.31  0.00  0.66  0.00  0.00  0.00  0.62  0.00
  C_159                   1.00   0.03  0.00  0.00  0.00  0.06  0.00  0.92  0.06  0.00
  C_160                   1.00   0.03  0.00  0.00  0.07  0.01  0.00  0.89  0.01  0.00
  C_161                   1.00   0.03  0.00  0.00  0.07  0.00  0.00  0.90  0.00  0.00
  C_162                   1.00   0.03  0.00  0.00  0.03  0.00  0.00  0.94  0.00  0.00
  C_163                   1.00   0.03  0.00  0.00  0.00  0.00  0.00  0.97  0.00  0.00
  C_164                   1.00   0.03  0.00  0.00  0.97  0.00  0.00  0.00  0.91  0.00
  C_165                   1.00   0.03  0.00  0.00  0.72  0.25  0.00  0.00  0.09  0.00
  C_166                   1.00   0.03  0.23  0.00  0.72  0.02  0.00  0.00  0.90  0.00
  C_167                   1.00   0.03  0.51  0.00  0.45  0.01  0.00  0.00  0.96  0.00
  C_168                   1.00   0.03  0.00  0.00  0.97  0.00  0.00  0.00  0.87  0.00
  C_169                   1.00   0.03  0.00  0.00  0.97  0.00  0.00  0.00  0.82  0.00
  C_170                   1.00   0.03  0.00  0.00  0.97  0.00  0.00  0.00  0.92  0.00
  C_171                   1.00   0.03  0.00  0.00  0.05  0.00  0.00  0.92  0.01  0.00
  C_172                   1.00   0.03  0.00  0.00  0.07  0.00  0.00  0.90  0.02  0.00
  C_174                   1.00   0.03  0.20  0.00  0.77  0.01  0.00  0.00  0.97  0.00
  C_175                   1.00   0.03  0.00  0.00  0.69  0.28  0.00  0.00  0.88  0.00
  C_176                   1.00   0.03  0.00  0.00  0.97  0.00  0.00  0.00  0.97  0.00
  C_178                   1.00   0.03  0.00  0.00  0.96  0.01  0.00  0.00  0.93  0.00
  C_179                   1.00   0.03  0.00  0.00  0.00  0.00  0.00  0.97  0.00  0.00
  C_180                   1.00   0.03  0.00  0.00  0.00  0.00  0.00  0.97  0.00  0.00
  
  
  *************************
  Conduit Surcharge Summary
  *************************
  
  ----------------------------------------------------------------------------
                                                           Hours        Hours 
                         --------- Hours Full --------   Above Full   Capacity
  Conduit                Both Ends  Upstream  Dnstream   Normal Flow   Limited
  ----------------------------------------------------------------------------
  nC_180                      0.07      0.07      0.17      0.08         0.07
  C_1                         0.01      0.08      0.01      0.09         0.01
  C_2                         0.01      0.08      0.01      0.17         0.01
  C_3                         0.01      0.03      0.01      0.11         0.01
  C_4                         0.01      0.38      0.01      0.41         0.01
  C_6                         0.17      0.17      0.19      0.01         0.01
  C_7                         0.19      0.19      0.20      0.17         0.17
  C_8                         0.17      0.20      0.17      0.21         0.17
  C_9                         0.04      0.04      0.08      0.01         0.01
  C_10                        0.07      0.07      0.10      0.01         0.01
  C_11                        0.10      0.10      0.14      0.01         0.01
  C_12                        0.01      0.01      0.17      0.01         0.01
  C_14                        0.01      0.01      0.13      0.01         0.01
  C_18                        0.07      0.07      0.08      0.01         0.01
  C_20                        0.01      0.08      0.01      0.07         0.01
  C_22                        0.01      0.09      0.01      0.10         0.01
  C_23                        0.07      0.07      0.09      0.05         0.06
  C_24                        0.06      0.06      0.08      0.01         0.01
  C_25                        0.23      0.32      0.23      0.42         0.23
  C_26                        0.01      0.33      0.01      0.42         0.01
  C_29                        0.17      0.17      0.22      0.03         0.02
  C_30                        0.14      0.14      0.17      0.01         0.01
  C_31                        0.09      0.09      0.14      0.09         0.09
  C_32                        0.01      0.01      0.09      0.01         0.01
  C_33                        0.09      0.09      0.09      0.01         0.01
  C_37                        0.01      0.08      0.01      0.08         0.01
  C_38                        0.17      0.17      0.18      0.01         0.01
  C_39                        0.11      0.11      0.17      0.01         0.01
  C_41                        0.20      0.20      0.24      0.01         0.01
  C_42                        0.22      0.23      0.22      0.14         0.10
  C_43                        0.22      0.22      0.23      0.03         0.03
  C_44                        0.20      0.20      0.22      0.01         0.01
  C_45                        0.18      0.18      0.20      0.08         0.08
  C_46                        0.14      0.14      0.18      0.06         0.06
  C_47                        0.01      0.01      0.14      0.01         0.01
  C_50                        0.13      0.27      0.13      0.30         0.13
  C_51                        0.24      0.24      0.24      0.27         0.24
  C_52                        0.01      0.01      0.24      0.01         0.01
  C_53                        0.01      0.17      0.01      0.06         0.01
  C_55                        0.01      0.01      0.08      0.01         0.01
  C_56                        0.05      0.06      0.05      0.08         0.05
  C_57                        0.02      0.02      0.19      0.01         0.01
  C_59                        0.01      0.09      0.01      0.11         0.01
  C_60                        0.06      0.13      0.06      0.19         0.06
  C_61                        0.25      0.25      0.29      0.29         0.25
  C_62                        0.07      0.07      0.25      0.01         0.01
  C_63                        0.06      0.06      0.07      0.01         0.01
  C_65                        0.13      0.13      0.23      0.01         0.01
  C_66                        0.01      0.01      0.06      0.01         0.01
  C_67                        0.08      0.08      0.09      0.09         0.08
  C_68                        0.16      0.19      0.16      0.28         0.16
  C_69                        0.01      0.20      0.01      0.23         0.01
  C_71                        0.01      0.01      0.16      0.01         0.01
  C_72                        0.01      0.23      0.01      0.26         0.01
  C_73                        0.17      0.17      0.17      0.20         0.17
  C_74                        0.13      0.13      0.17      0.02         0.02
  C_75                        0.12      0.12      0.13      0.01         0.01
  C_76                        0.08      0.08      0.09      0.03         0.02
  C_77                        0.01      0.01      0.08      0.01         0.01
  C_78                        0.01      0.08      0.01      0.08         0.01
  C_80                        0.08      0.08      0.09      0.01         0.01
  C_81                        0.09      0.09      0.09      0.10         0.08
  C_82                        0.09      0.09      0.11      0.11         0.09
  C_83                        0.20      0.25      0.20      0.30         0.20
  C_84                        0.08      0.26      0.08      0.32         0.08
  C_85                        0.12      0.13      0.13      0.16         0.12
  C_86                        0.17      0.18      0.19      0.09         0.07
  C_87                        0.01      0.09      0.01      0.10         0.01
  C_88                        0.20      0.20      0.25      0.08         0.07
  C_89                        0.16      0.16      0.20      0.06         0.06
  C_90                        0.01      0.08      0.01      0.12         0.01
  C_91                        0.01      0.01      0.08      0.01         0.01
  C_93                        0.08      0.08      0.09      0.01         0.01
  C_94                        0.22      0.22      0.24      0.01         0.01
  C_95                        0.23      0.23      0.23      0.10         0.01
  C_96                        0.21      0.21      0.23      0.10         0.01
  C_97                        0.19      0.19      0.21      0.15         0.01
  C_98                        0.17      0.17      0.25      0.01         0.01
  C_99                        0.08      0.08      0.17      0.01         0.01
  C_100                       0.06      0.06      0.08      0.01         0.01
  C_101                       0.01      0.18      0.01      0.21         0.01
  C_102                       0.08      0.13      0.08      0.17         0.08
  C_103                       0.09      0.09      0.10      0.08         0.08
  C_104                       0.07      0.35      0.07      0.39         0.07
  C_105                       0.07      0.08      0.07      0.08         0.07
  C_107                       0.07      0.07      0.07      0.01         0.01
  C_112                       0.01      0.01      0.23      0.01         0.01
  C_113                       0.21      0.23      0.21      0.27         0.21
  C_114                       0.05      0.28      0.05      0.32         0.05
  C_115                       0.10      0.10      0.12      0.09         0.08
  C_116                       0.23      0.23      0.26      0.26         0.23
  C_117                       0.01      0.01      0.08      0.01         0.01
  C_118                       0.01      0.01      0.13      0.01         0.01
  C_120                       0.01      0.22      0.01      0.21         0.01
  C_121                       0.19      0.19      0.22      0.01         0.01
  C_122                       0.14      0.14      0.19      0.01         0.01
  C_123                       0.08      0.08      0.14      0.01         0.01
  C_124                       0.04      0.04      0.08      0.01         0.01
  C_125                       0.24      0.24      0.28      0.01         0.01
  C_126                       0.28      0.28      0.31      0.09         0.09
  C_127                       0.30      0.30      0.34      0.12         0.13
  C_128                       0.10      0.10      0.13      0.02         0.02
  C_129                       0.08      0.08      0.10      0.01         0.01
  C_130                       0.05      0.05      0.08      0.01         0.01
  C_131                       0.01      0.01      0.06      0.01         0.01
  C_132                       0.05      0.05      0.07      0.01         0.01
  C_133                       0.21      0.21      0.35      0.05         0.01
  C_134                       0.01      0.07      0.01      0.07         0.01
  C_135                       0.01      0.01      0.12      0.01         0.01
  C_136                       0.07      0.24      0.07      0.24         0.07
  C_138                       0.01      0.01      0.10      0.01         0.01
  C_140                       0.01      0.01      0.17      0.01         0.01
  C_141                       0.17      0.17      0.24      0.01         0.01
  C_142                       0.34      0.34      0.38      0.20         0.21
  C_144                       0.17      0.17      0.22      0.01         0.01
  C_145                       0.15      0.22      0.15      0.28         0.15
  C_146                       0.14      0.15      0.14      0.17         0.14
  C_147                       0.17      0.18      0.18      0.19         0.17
  C_149                       0.01      0.01      0.07      0.01         0.01
  C_151                       0.01      0.98      0.01      0.99         0.01
  C_152                       0.01      0.23      0.01      0.26         0.01
  C_153                       0.14      0.18      0.14      0.26         0.14
  C_154                       0.01      0.01      0.09      0.01         0.01
  C_155                       0.01      0.05      0.01      0.06         0.01
  C_156                       0.01      0.01      0.01      0.09         0.01
  C_157                       0.01      0.03      0.01      0.08         0.01
  C_158                       0.01      0.01      0.03      0.01         0.01
  C_160                       0.01      0.17      0.01      0.21         0.01
  C_161                       0.01      0.29      0.01      0.34         0.01
  C_162                       0.01      0.24      0.01      0.29         0.01
  C_163                       0.01      0.23      0.01      0.27         0.01
  C_164                       0.17      0.17      0.18      0.01         0.01
  C_165                       0.18      0.18      0.19      0.01         0.01
  C_166                       0.18      0.18      0.34      0.01         0.01
  C_167                       0.01      0.01      0.24      0.01         0.01
  C_168                       0.12      0.12      0.17      0.01         0.01
  C_169                       0.09      0.09      0.12      0.01         0.01
  C_170                       0.07      0.07      0.09      0.01         0.01
  C_171                       0.08      0.08      0.12      0.01         0.01
  C_172                       0.11      0.11      0.16      0.01         0.01
  C_174                       0.01      0.01      0.25      0.01         0.01
  C_175                       0.01      0.01      0.13      0.01         0.01
  C_178                       0.06      0.07      0.06      0.08         0.06
  C_180                       0.20      0.20      0.22      0.22         0.20
  

  Analysis begun on:  Sun Feb 21 16:52:02 2021
  Analysis ended on:  Sun Feb 21 16:52:04 2021
  Total elapsed time: 00:00:02