
  EPA STORM WATER MANAGEMENT MODEL - VERSION 5.1 (Build 5.1.010)
  --------------------------------------------------------------

  null 
  
  *********************************************************
  NOTE: The summary statistics displayed in this report are
  based on results found at every computational time step,  
  not just on results from each reporting time step.
  *********************************************************
  
  ****************
  Analysis Options
  ****************
  Flow Units ............... CMS
  Process Models:
    Rainfall/Runoff ........ NO
    RDII ................... NO
    Snowmelt ............... NO
    Groundwater ............ NO
    Flow Routing ........... YES
    Ponding Allowed ........ NO
    Water Quality .......... YES
  Flow Routing Method ...... DYNWAVE
  Starting Date ............ JAN-01-2018 00:00:00
  Ending Date .............. JAN-01-2018 04:00:00
  Antecedent Dry Days ...... 14.0
  Report Time Step ......... 00:01:00
  Routing Time Step ........ 1.00 sec
  Variable Time Step ....... NO
  Maximum Trials ........... 8
  Number of Threads ........ 1
  Head Tolerance ........... 0.001500 m
  
  
  *********************
  Control Actions Taken
  *********************

  
  **************************        Volume        Volume
  Flow Routing Continuity        hectare-m      10^6 ltr
  **************************     ---------     ---------
  Dry Weather Inflow .......         0.000         0.000
  Wet Weather Inflow .......         0.000         0.000
  Groundwater Inflow .......         0.000         0.000
  RDII Inflow ..............         0.000         0.000
  External Inflow ..........         1.008        10.078
  External Outflow .........         0.956         9.556
  Flooding Loss ............         0.000         0.000
  Evaporation Loss .........         0.000         0.000
  Exfiltration Loss ........         0.000         0.000
  Initial Stored Volume ....         0.000         0.000
  Final Stored Volume ......         0.052         0.522
  Continuity Error (%) .....        -0.001
  
  
  **************************     Pollutant
  Quality Routing Continuity            kg
  **************************    ----------
  Dry Weather Inflow .......         0.000
  Wet Weather Inflow .......         0.000
  Groundwater Inflow .......         0.000
  RDII Inflow ..............         0.000
  External Inflow ..........      4200.000
  External Outflow .........      4200.479
  Flooding Loss ............         0.000
  Exfiltration Loss ........         0.000
  Mass Reacted .............         0.000
  Initial Stored Mass ......         0.000
  Final Stored Mass ........         0.000
  Continuity Error (%) .....        -0.011
  
  
  *************************
  Highest Continuity Errors
  *************************
  Node MW-500-1 (2.21%)
  Node MW-500-2 (1.30%)
  
  
  ********************************
  Highest Flow Instability Indexes
  ********************************
  All links are stable.
  
  
  *************************
  Routing Time Step Summary
  *************************
  Minimum Time Step           :     1.00 sec
  Average Time Step           :     0.50 sec
  Maximum Time Step           :     1.00 sec
  Percent in Steady State     :     0.00
  Average Iterations per Step :     0.99
  Percent Not Converging      :     0.00
  
  
  ******************
  Node Depth Summary
  ******************
  
  ---------------------------------------------------------------------------------
                                 Average  Maximum  Maximum  Time of Max    Reported
                                   Depth    Depth      HGL   Occurrence   Max Depth
  Node                 Type       Meters   Meters   Meters  days hr:min      Meters
  ---------------------------------------------------------------------------------
  MW-5-A               JUNCTION     0.09     0.19   100.24     0  03:44        0.06
  MW-5-0               JUNCTION     0.09     0.19   100.19     0  02:23        0.06
  MW-5-1               JUNCTION     0.09     0.19   100.14     0  02:32        0.06
  MW-5-2               JUNCTION     0.09     0.19   100.09     0  02:57        0.06
  MW-5-3               JUNCTION     0.09     0.19   100.04     0  02:33        0.06
  MW-5-4               JUNCTION     0.09     0.19    99.99     0  02:58        0.06
  MW-5-5               JUNCTION     0.09     0.19    99.94     0  02:31        0.06
  MW-5-6               JUNCTION     0.09     0.19    99.89     0  02:56        0.06
  MW-5-7               JUNCTION     0.09     0.19    99.84     0  02:11        0.06
  MW-5-8               JUNCTION     0.09     0.19    99.79     0  02:20        0.06
  MW-5-9               JUNCTION     0.09     0.19    99.74     0  02:30        0.06
  MW-5-10              JUNCTION     0.09     0.19    99.69     0  02:55        0.06
  MW-5-11              JUNCTION     0.09     0.19    99.64     0  02:10        0.06
  MW-5-12              JUNCTION     0.09     0.19    99.59     0  02:58        0.06
  MW-5-13              JUNCTION     0.09     0.19    99.54     0  02:29        0.06
  MW-5-14              JUNCTION     0.09     0.19    99.49     0  02:58        0.06
  MW-5-15              JUNCTION     0.09     0.19    99.44     0  02:09        0.06
  MW-5-16              JUNCTION     0.09     0.19    99.39     0  02:59        0.06
  MW-5-17              JUNCTION     0.09     0.19    99.34     0  02:34        0.06
  MW-5-18              JUNCTION     0.09     0.19    99.29     0  02:59        0.06
  MW-5-19              JUNCTION     0.09     0.19    99.24     0  02:34        0.06
  MW-5-20              JUNCTION     0.09     0.19    99.19     0  02:59        0.06
  MW-5-21              JUNCTION     0.09     0.19    99.14     0  02:34        0.06
  MW-5-22              JUNCTION     0.09     0.19    99.09     0  02:59        0.06
  MW-5-23              JUNCTION     0.09     0.19    99.04     0  02:34        0.06
  MW-5-24              JUNCTION     0.09     0.19    98.99     0  02:59        0.06
  MW-5-25              JUNCTION     0.09     0.19    98.94     0  02:34        0.06
  MW-5-26              JUNCTION     0.09     0.19    98.89     0  02:16        0.06
  MW-5-27              JUNCTION     0.09     0.19    98.84     0  02:25        0.06
  MW-5-28              JUNCTION     0.09     0.19    98.79     0  02:16        0.06
  MW-5-29              JUNCTION     0.09     0.19    98.74     0  02:35        0.06
  MW-5-30              JUNCTION     0.09     0.19    98.69     0  03:00        0.06
  MW-5-31              JUNCTION     0.09     0.19    98.64     0  02:35        0.06
  MW-5-32              JUNCTION     0.09     0.19    98.59     0  03:00        0.06
  MW-5-33              JUNCTION     0.09     0.19    98.54     0  02:35        0.06
  MW-5-34              JUNCTION     0.09     0.19    98.49     0  03:00        0.06
  MW-5-35              JUNCTION     0.09     0.19    98.44     0  02:35        0.06
  MW-5-36              JUNCTION     0.09     0.19    98.39     0  02:16        0.06
  MW-5-37              JUNCTION     0.09     0.19    98.34     0  03:46        0.06
  MW-5-38              JUNCTION     0.09     0.19    98.29     0  02:16        0.06
  MW-5-39              JUNCTION     0.09     0.19    98.24     0  03:46        0.06
  MW-5-40              JUNCTION     0.09     0.19    98.19     0  02:16        0.06
  MW-5-41              JUNCTION     0.09     0.19    98.14     0  03:46        0.06
  MW-5-42              JUNCTION     0.09     0.19    98.09     0  02:17        0.06
  MW-5-43              JUNCTION     0.09     0.19    98.04     0  03:46        0.06
  MW-5-44              JUNCTION     0.09     0.19    97.99     0  02:17        0.06
  MW-5-45              JUNCTION     0.09     0.19    97.94     0  03:47        0.06
  MW-5-46              JUNCTION     0.09     0.19    97.89     0  02:17        0.06
  MW-5-47              JUNCTION     0.09     0.19    97.84     0  03:47        0.06
  MW-5-48              JUNCTION     0.09     0.19    97.79     0  02:17        0.06
  MW-5-49              JUNCTION     0.09     0.19    97.74     0  02:36        0.06
  MW-5-50              JUNCTION     0.09     0.19    97.69     0  03:02        0.06
  MW-5-51              JUNCTION     0.09     0.19    97.64     0  02:36        0.06
  MW-5-52              JUNCTION     0.09     0.19    97.59     0  03:02        0.06
  MW-5-53              JUNCTION     0.09     0.19    97.54     0  02:37        0.06
  MW-5-54              JUNCTION     0.09     0.19    97.49     0  03:47        0.06
  MW-5-55              JUNCTION     0.09     0.19    97.44     0  02:37        0.06
  MW-5-56              JUNCTION     0.09     0.19    97.39     0  03:47        0.06
  MW-5-57              JUNCTION     0.09     0.19    97.34     0  02:37        0.06
  MW-5-58              JUNCTION     0.09     0.19    97.29     0  03:48        0.06
  MW-5-59              JUNCTION     0.09     0.19    97.24     0  02:37        0.06
  MW-5-60              JUNCTION     0.09     0.19    97.19     0  03:48        0.06
  MW-5-61              JUNCTION     0.09     0.19    97.14     0  02:37        0.06
  MW-5-62              JUNCTION     0.09     0.19    97.09     0  03:48        0.06
  MW-5-63              JUNCTION     0.09     0.19    97.04     0  02:37        0.06
  MW-5-64              JUNCTION     0.09     0.19    96.99     0  03:48        0.06
  MW-5-65              JUNCTION     0.09     0.19    96.94     0  02:19        0.06
  MW-5-66              JUNCTION     0.09     0.19    96.89     0  03:48        0.06
  MW-5-67              JUNCTION     0.09     0.19    96.84     0  02:19        0.06
  MW-5-68              JUNCTION     0.09     0.19    96.79     0  02:38        0.06
  MW-5-69              JUNCTION     0.09     0.19    96.74     0  02:19        0.06
  MW-5-70              JUNCTION     0.09     0.19    96.69     0  02:38        0.06
  MW-5-71              JUNCTION     0.09     0.19    96.64     0  02:19        0.06
  MW-5-72              JUNCTION     0.09     0.19    96.59     0  02:38        0.06
  MW-5-73              JUNCTION     0.09     0.19    96.54     0  02:19        0.06
  MW-5-74              JUNCTION     0.09     0.19    96.49     0  02:38        0.06
  MW-5-75              JUNCTION     0.09     0.19    96.44     0  03:49        0.06
  MW-5-76              JUNCTION     0.09     0.19    96.39     0  02:39        0.06
  MW-5-77              JUNCTION     0.09     0.19    96.34     0  03:49        0.06
  MW-5-78              JUNCTION     0.09     0.19    96.29     0  02:39        0.06
  MW-5-79              JUNCTION     0.09     0.19    96.24     0  03:49        0.06
  MW-5-80              JUNCTION     0.09     0.19    96.19     0  02:39        0.06
  MW-5-81              JUNCTION     0.09     0.19    96.14     0  03:50        0.06
  MW-5-82              JUNCTION     0.09     0.19    96.09     0  02:39        0.06
  MW-5-83              JUNCTION     0.09     0.19    96.04     0  03:50        0.06
  MW-5-84              JUNCTION     0.09     0.19    95.99     0  02:39        0.06
  MW-5-85              JUNCTION     0.09     0.19    95.94     0  02:20        0.06
  MW-5-86              JUNCTION     0.09     0.19    95.89     0  02:39        0.06
  MW-5-87              JUNCTION     0.09     0.19    95.84     0  02:20        0.06
  MW-5-88              JUNCTION     0.09     0.19    95.79     0  02:39        0.06
  MW-5-89              JUNCTION     0.09     0.19    95.74     0  03:50        0.06
  MW-5-90              JUNCTION     0.09     0.19    95.69     0  02:40        0.06
  MW-5-91              JUNCTION     0.09     0.19    95.64     0  03:51        0.06
  MW-5-92              JUNCTION     0.09     0.19    95.59     0  02:40        0.06
  MW-5-93              JUNCTION     0.09     0.20    95.55     0  03:50        0.06
  MW-5-94              JUNCTION     0.09     0.19    95.49     0  02:40        0.06
  MW-5-95              JUNCTION     0.09     0.20    95.45     0  03:51        0.06
  MW-5-96              JUNCTION     0.09     0.20    95.40     0  02:40        0.06
  MW-5-97              JUNCTION     0.09     0.20    95.35     0  03:51        0.06
  MW-5-98              JUNCTION     0.09     0.20    95.30     0  02:40        0.06
  MW-5-99              JUNCTION     0.09     0.20    95.25     0  03:51        0.06
  MW-5-100             JUNCTION     0.09     0.20    95.20     0  02:40        0.06
  MW-5-101             JUNCTION     0.09     0.20    95.15     0  03:51        0.06
  MW-5-102             JUNCTION     0.09     0.20    95.10     0  02:41        0.06
  MW-5-103             JUNCTION     0.09     0.20    95.05     0  03:51        0.06
  MW-5-104             JUNCTION     0.09     0.20    95.00     0  02:41        0.06
  MW-5-105             JUNCTION     0.09     0.20    94.95     0  03:51        0.06
  MW-5-106             JUNCTION     0.09     0.20    94.90     0  02:41        0.06
  MW-5-107             JUNCTION     0.09     0.20    94.85     0  03:52        0.06
  MW-5-108             JUNCTION     0.09     0.20    94.80     0  02:41        0.06
  MW-5-109             JUNCTION     0.09     0.20    94.75     0  03:52        0.06
  MW-5-110             JUNCTION     0.09     0.20    94.70     0  02:41        0.06
  MW-5-111             JUNCTION     0.09     0.20    94.65     0  03:52        0.06
  MW-5-112             JUNCTION     0.09     0.20    94.60     0  02:22        0.06
  MW-5-113             JUNCTION     0.09     0.20    94.55     0  03:52        0.06
  MW-5-114             JUNCTION     0.09     0.20    94.50     0  02:23        0.06
  MW-5-115             JUNCTION     0.09     0.20    94.45     0  03:55        0.06
  MW-5-116             JUNCTION     0.09     0.20    94.40     0  03:52        0.06
  MW-5-117             JUNCTION     0.09     0.20    94.35     0  03:55        0.06
  MW-5-118             JUNCTION     0.09     0.20    94.30     0  03:55        0.06
  MW-5-119             JUNCTION     0.09     0.20    94.25     0  03:55        0.06
  MW-5-120             JUNCTION     0.09     0.21    94.21     0  03:55        0.06
  MW-5-121             JUNCTION     0.09     0.21    94.16     0  02:44        0.06
  MW-5-122             JUNCTION     0.09     0.21    94.11     0  02:44        0.06
  MW-5-123             JUNCTION     0.09     0.21    94.06     0  02:45        0.06
  MW-5-124             JUNCTION     0.09     0.21    94.01     0  02:45        0.06
  MW-5-125             JUNCTION     0.09     0.21    93.96     0  02:45        0.06
  MW-5-126             JUNCTION     0.09     0.21    93.91     0  02:45        0.06
  MW-5-127             JUNCTION     0.09     0.21    93.86     0  02:45        0.06
  MW-5-128             JUNCTION     0.09     0.22    93.82     0  02:45        0.06
  MW-5-129             JUNCTION     0.09     0.22    93.77     0  02:45        0.06
  MW-5-130             JUNCTION     0.09     0.22    93.72     0  02:45        0.06
  MW-5-131             JUNCTION     0.09     0.22    93.67     0  02:45        0.06
  MW-5-132             JUNCTION     0.09     0.22    93.62     0  02:45        0.06
  MW-5-133             JUNCTION     0.09     0.22    93.57     0  02:45        0.06
  MW-5-134             JUNCTION     0.09     0.22    93.52     0  02:45        0.06
  MW-5-135             JUNCTION     0.09     0.22    93.47     0  02:46        0.07
  MW-5-136             JUNCTION     0.09     0.22    93.42     0  02:46        0.06
  MW-5-137             JUNCTION     0.09     0.22    93.37     0  02:46        0.06
  MW-5-138             JUNCTION     0.09     0.22    93.32     0  02:46        0.07
  MW-5-139             JUNCTION     0.09     0.22    93.27     0  02:46        0.06
  MW-5-140             JUNCTION     0.09     0.22    93.22     0  02:46        0.07
  MW-5-141             JUNCTION     0.09     0.22    93.17     0  03:11        0.06
  MW-5-142             JUNCTION     0.09     0.23    93.13     0  03:11        0.06
  MW-5-143             JUNCTION     0.09     0.23    93.08     0  03:11        0.06
  MW-5-144             JUNCTION     0.09     0.23    93.03     0  03:11        0.07
  MW-5-145             JUNCTION     0.09     0.23    92.98     0  03:12        0.07
  MW-5-146             JUNCTION     0.09     0.23    92.93     0  03:12        0.07
  MW-5-147             JUNCTION     0.09     0.23    92.88     0  03:12        0.07
  MW-5-148             JUNCTION     0.09     0.23    92.83     0  03:12        0.06
  MW-5-149             JUNCTION     0.09     0.23    92.78     0  03:12        0.06
  MW-5-150             JUNCTION     0.09     0.23    92.73     0  03:12        0.07
  MW-5-151             JUNCTION     0.09     0.23    92.68     0  03:12        0.07
  MW-5-152             JUNCTION     0.09     0.23    92.63     0  03:12        0.07
  MW-5-153             JUNCTION     0.09     0.23    92.58     0  03:12        0.07
  MW-5-154             JUNCTION     0.09     0.23    92.53     0  03:12        0.07
  MW-5-155             JUNCTION     0.09     0.23    92.48     0  03:12        0.07
  MW-5-156             JUNCTION     0.09     0.23    92.43     0  03:12        0.07
  MW-5-157             JUNCTION     0.09     0.23    92.38     0  03:13        0.07
  MW-5-158             JUNCTION     0.09     0.24    92.34     0  03:13        0.07
  MW-5-159             JUNCTION     0.09     0.24    92.29     0  03:13        0.07
  MW-5-160             JUNCTION     0.09     0.24    92.24     0  03:13        0.07
  MW-5-161             JUNCTION     0.09     0.24    92.19     0  03:13        0.06
  MW-5-162             JUNCTION     0.09     0.24    92.14     0  02:26        0.07
  MW-5-163             JUNCTION     0.09     0.24    92.09     0  02:26        0.07
  MW-5-164             JUNCTION     0.09     0.24    92.04     0  02:26        0.07
  MW-5-165             JUNCTION     0.09     0.24    91.99     0  02:26        0.07
  MW-5-166             JUNCTION     0.09     0.24    91.94     0  02:26        0.07
  MW-5-167             JUNCTION     0.09     0.24    91.89     0  02:27        0.07
  MW-5-168             JUNCTION     0.09     0.24    91.84     0  02:27        0.07
  MW-5-169             JUNCTION     0.09     0.24    91.79     0  02:27        0.07
  MW-5-170             JUNCTION     0.09     0.24    91.74     0  02:27        0.07
  MW-5-171             JUNCTION     0.09     0.24    91.69     0  02:27        0.07
  MW-5-172             JUNCTION     0.09     0.24    91.64     0  02:27        0.07
  MW-5-173             JUNCTION     0.09     0.24    91.59     0  02:27        0.06
  MW-5-174             JUNCTION     0.09     0.24    91.54     0  02:27        0.06
  MW-5-175             JUNCTION     0.09     0.24    91.49     0  02:27        0.07
  MW-5-176             JUNCTION     0.09     0.24    91.44     0  02:27        0.07
  MW-5-177             JUNCTION     0.09     0.25    91.40     0  02:27        0.06
  MW-5-178             JUNCTION     0.09     0.24    91.34     0  03:14        0.07
  MW-5-179             JUNCTION     0.09     0.26    91.31     0  02:27        0.08
  MW-5-180             JUNCTION     0.09     0.24    91.24     0  03:14        0.07
  MW-5-181             JUNCTION     0.09     0.24    91.19     0  02:28        0.07
  MW-5-182             JUNCTION     0.09     0.24    91.14     0  03:14        0.07
  MW-5-183             JUNCTION     0.09     0.24    91.09     0  03:15        0.07
  MW-5-184             JUNCTION     0.09     0.25    91.05     0  02:28        0.07
  MW-5-185             JUNCTION     0.09     0.24    90.99     0  03:15        0.07
  MW-5-186             JUNCTION     0.09     0.25    90.95     0  03:58        0.07
  MW-5-187             JUNCTION     0.09     0.24    90.89     0  03:15        0.06
  MW-5-188             JUNCTION     0.09     0.25    90.85     0  03:58        0.07
  MW-5-189             JUNCTION     0.09     0.25    90.80     0  03:15        0.07
  MW-5-190             JUNCTION     0.09     0.25    90.75     0  03:58        0.07
  MW-5-191             JUNCTION     0.09     0.25    90.70     0  02:40        0.07
  MW-5-192             JUNCTION     0.09     0.25    90.65     0  03:58        0.07
  MW-5-193             JUNCTION     0.09     0.25    90.60     0  03:15        0.07
  MW-5-194             JUNCTION     0.09     0.25    90.55     0  03:58        0.07
  MW-5-195             JUNCTION     0.09     0.25    90.50     0  03:16        0.07
  MW-5-196             JUNCTION     0.09     0.25    90.45     0  03:58        0.08
  MW-5-197             JUNCTION     0.09     0.24    90.39     0  03:16        0.07
  MW-5-198             JUNCTION     0.09     0.26    90.36     0  03:16        0.08
  MW-5-199             JUNCTION     0.09     0.22    90.27     0  03:16        0.07
  MW-5-200             JUNCTION     0.09     0.25    90.25     0  03:59        0.07
  MW-10-A              JUNCTION     0.09     0.19   100.24     0  02:02        0.06
  MW-10-0              JUNCTION     0.09     0.18   100.18     0  02:01        0.05
  MW-10-1              JUNCTION     0.09     0.18   100.08     0  03:28        0.05
  MW-10-2              JUNCTION     0.09     0.18    99.98     0  03:49        0.05
  MW-10-3              JUNCTION     0.09     0.18    99.88     0  03:53        0.05
  MW-10-4              JUNCTION     0.09     0.18    99.78     0  02:02        0.05
  MW-10-5              JUNCTION     0.09     0.18    99.68     0  02:01        0.05
  MW-10-6              JUNCTION     0.09     0.18    99.58     0  03:47        0.05
  MW-10-7              JUNCTION     0.09     0.18    99.48     0  03:59        0.05
  MW-10-8              JUNCTION     0.09     0.18    99.38     0  03:59        0.05
  MW-10-9              JUNCTION     0.09     0.18    99.28     0  03:54        0.05
  MW-10-10             JUNCTION     0.09     0.18    99.18     0  03:52        0.05
  MW-10-11             JUNCTION     0.09     0.18    99.08     0  02:02        0.05
  MW-10-12             JUNCTION     0.09     0.18    98.98     0  03:58        0.05
  MW-10-13             JUNCTION     0.09     0.18    98.88     0  03:56        0.05
  MW-10-14             JUNCTION     0.09     0.18    98.78     0  03:54        0.05
  MW-10-15             JUNCTION     0.09     0.18    98.68     0  03:51        0.05
  MW-10-16             JUNCTION     0.09     0.18    98.58     0  03:59        0.05
  MW-10-17             JUNCTION     0.09     0.18    98.48     0  03:57        0.05
  MW-10-18             JUNCTION     0.09     0.18    98.38     0  03:56        0.05
  MW-10-19             JUNCTION     0.09     0.18    98.28     0  03:51        0.05
  MW-10-20             JUNCTION     0.09     0.18    98.18     0  03:59        0.05
  MW-10-21             JUNCTION     0.09     0.18    98.08     0  03:58        0.05
  MW-10-22             JUNCTION     0.09     0.18    97.98     0  03:56        0.05
  MW-10-23             JUNCTION     0.09     0.18    97.88     0  03:53        0.05
  MW-10-24             JUNCTION     0.09     0.18    97.78     0  03:51        0.05
  MW-10-25             JUNCTION     0.09     0.18    97.68     0  03:48        0.05
  MW-10-26             JUNCTION     0.09     0.18    97.58     0  03:46        0.05
  MW-10-27             JUNCTION     0.09     0.18    97.48     0  03:42        0.05
  MW-10-28             JUNCTION     0.09     0.18    97.38     0  03:40        0.05
  MW-10-29             JUNCTION     0.09     0.18    97.28     0  03:36        0.05
  MW-10-30             JUNCTION     0.09     0.18    97.18     0  03:35        0.05
  MW-10-31             JUNCTION     0.09     0.18    97.08     0  03:31        0.05
  MW-10-32             JUNCTION     0.09     0.18    96.98     0  03:29        0.05
  MW-10-33             JUNCTION     0.09     0.18    96.88     0  03:25        0.05
  MW-10-34             JUNCTION     0.09     0.18    96.78     0  03:24        0.05
  MW-10-35             JUNCTION     0.09     0.18    96.68     0  03:20        0.05
  MW-10-36             JUNCTION     0.09     0.18    96.58     0  03:18        0.05
  MW-10-37             JUNCTION     0.09     0.18    96.48     0  03:14        0.05
  MW-10-38             JUNCTION     0.09     0.18    96.38     0  03:13        0.05
  MW-10-39             JUNCTION     0.09     0.18    96.28     0  03:09        0.05
  MW-10-40             JUNCTION     0.09     0.18    96.18     0  03:07        0.05
  MW-10-41             JUNCTION     0.09     0.18    96.08     0  03:03        0.05
  MW-10-42             JUNCTION     0.09     0.18    95.98     0  03:02        0.05
  MW-10-43             JUNCTION     0.09     0.18    95.88     0  02:58        0.05
  MW-10-44             JUNCTION     0.09     0.18    95.78     0  02:56        0.05
  MW-10-45             JUNCTION     0.09     0.18    95.68     0  02:52        0.05
  MW-10-46             JUNCTION     0.09     0.18    95.58     0  02:51        0.05
  MW-10-47             JUNCTION     0.09     0.18    95.48     0  02:47        0.05
  MW-10-48             JUNCTION     0.09     0.18    95.38     0  02:45        0.05
  MW-10-49             JUNCTION     0.09     0.18    95.28     0  02:42        0.05
  MW-10-50             JUNCTION     0.09     0.18    95.18     0  02:40        0.05
  MW-10-51             JUNCTION     0.09     0.18    95.08     0  02:36        0.05
  MW-10-52             JUNCTION     0.09     0.18    94.98     0  02:34        0.05
  MW-10-53             JUNCTION     0.09     0.18    94.88     0  02:31        0.05
  MW-10-54             JUNCTION     0.09     0.18    94.78     0  02:29        0.05
  MW-10-55             JUNCTION     0.09     0.18    94.68     0  02:25        0.05
  MW-10-56             JUNCTION     0.09     0.18    94.58     0  02:23        0.05
  MW-10-57             JUNCTION     0.09     0.18    94.48     0  02:20        0.05
  MW-10-58             JUNCTION     0.09     0.18    94.38     0  02:18        0.05
  MW-10-59             JUNCTION     0.09     0.18    94.28     0  02:14        0.05
  MW-10-60             JUNCTION     0.09     0.18    94.18     0  02:12        0.05
  MW-10-61             JUNCTION     0.09     0.18    94.08     0  02:09        0.05
  MW-10-62             JUNCTION     0.09     0.18    93.98     0  02:07        0.05
  MW-10-63             JUNCTION     0.09     0.18    93.88     0  02:03        0.05
  MW-10-64             JUNCTION     0.09     0.18    93.78     0  02:01        0.05
  MW-10-65             JUNCTION     0.09     0.18    93.68     0  02:01        0.05
  MW-10-66             JUNCTION     0.09     0.18    93.58     0  02:01        0.05
  MW-10-67             JUNCTION     0.09     0.18    93.48     0  02:01        0.05
  MW-10-68             JUNCTION     0.09     0.18    93.38     0  02:00        0.05
  MW-10-69             JUNCTION     0.09     0.18    93.28     0  02:00        0.05
  MW-10-70             JUNCTION     0.09     0.18    93.18     0  02:01        0.05
  MW-10-71             JUNCTION     0.09     0.18    93.08     0  02:01        0.05
  MW-10-72             JUNCTION     0.09     0.18    92.98     0  02:01        0.05
  MW-10-73             JUNCTION     0.09     0.18    92.88     0  02:02        0.05
  MW-10-74             JUNCTION     0.09     0.18    92.78     0  02:00        0.05
  MW-10-75             JUNCTION     0.09     0.18    92.68     0  02:00        0.05
  MW-10-76             JUNCTION     0.09     0.18    92.58     0  02:01        0.05
  MW-10-77             JUNCTION     0.09     0.18    92.48     0  03:54        0.05
  MW-10-78             JUNCTION     0.09     0.18    92.38     0  03:54        0.05
  MW-10-79             JUNCTION     0.09     0.18    92.28     0  03:54        0.05
  MW-10-80             JUNCTION     0.09     0.18    92.18     0  03:54        0.05
  MW-10-81             JUNCTION     0.09     0.18    92.08     0  03:54        0.05
  MW-10-82             JUNCTION     0.09     0.18    91.98     0  03:54        0.05
  MW-10-83             JUNCTION     0.09     0.18    91.88     0  03:54        0.05
  MW-10-84             JUNCTION     0.09     0.18    91.78     0  03:54        0.05
  MW-10-85             JUNCTION     0.09     0.18    91.68     0  03:54        0.05
  MW-10-86             JUNCTION     0.09     0.18    91.58     0  03:54        0.05
  MW-10-87             JUNCTION     0.09     0.18    91.48     0  03:55        0.05
  MW-10-88             JUNCTION     0.09     0.18    91.38     0  03:55        0.05
  MW-10-89             JUNCTION     0.09     0.18    91.28     0  03:55        0.05
  MW-10-90             JUNCTION     0.09     0.18    91.18     0  03:55        0.05
  MW-10-91             JUNCTION     0.09     0.18    91.08     0  03:55        0.05
  MW-10-92             JUNCTION     0.09     0.18    90.98     0  03:46        0.05
  MW-10-93             JUNCTION     0.09     0.18    90.88     0  03:55        0.05
  MW-10-94             JUNCTION     0.09     0.18    90.78     0  03:46        0.05
  MW-10-95             JUNCTION     0.09     0.18    90.68     0  03:56        0.05
  MW-10-96             JUNCTION     0.09     0.18    90.58     0  03:46        0.05
  MW-10-97             JUNCTION     0.09     0.18    90.48     0  03:46        0.05
  MW-10-98             JUNCTION     0.09     0.18    90.38     0  03:46        0.05
  MW-10-99             JUNCTION     0.09     0.18    90.28     0  03:47        0.05
  MW-10-100            JUNCTION     0.09     0.19    90.19     0  03:47        0.06
  MW-20-A              JUNCTION     0.09     0.19   100.24     0  03:51        0.06
  MW-20-0              JUNCTION     0.09     0.18   100.18     0  02:08        0.05
  MW-20-1              JUNCTION     0.09     0.18    99.98     0  03:51        0.05
  MW-20-2              JUNCTION     0.09     0.18    99.78     0  03:08        0.05
  MW-20-3              JUNCTION     0.09     0.18    99.58     0  03:31        0.05
  MW-20-4              JUNCTION     0.09     0.18    99.38     0  02:57        0.05
  MW-20-5              JUNCTION     0.09     0.18    99.18     0  03:53        0.05
  MW-20-6              JUNCTION     0.09     0.18    98.98     0  03:02        0.05
  MW-20-7              JUNCTION     0.09     0.18    98.78     0  03:55        0.05
  MW-20-8              JUNCTION     0.09     0.18    98.58     0  03:15        0.05
  MW-20-9              JUNCTION     0.09     0.18    98.38     0  03:24        0.05
  MW-20-10             JUNCTION     0.09     0.18    98.18     0  03:15        0.05
  MW-20-11             JUNCTION     0.09     0.18    97.98     0  02:12        0.05
  MW-20-12             JUNCTION     0.09     0.18    97.78     0  03:52        0.05
  MW-20-13             JUNCTION     0.09     0.18    97.58     0  03:16        0.05
  MW-20-14             JUNCTION     0.09     0.18    97.38     0  02:59        0.05
  MW-20-15             JUNCTION     0.09     0.18    97.18     0  03:09        0.05
  MW-20-16             JUNCTION     0.09     0.18    96.98     0  02:25        0.05
  MW-20-17             JUNCTION     0.09     0.18    96.78     0  02:57        0.05
  MW-20-18             JUNCTION     0.09     0.18    96.58     0  03:15        0.05
  MW-20-19             JUNCTION     0.09     0.18    96.38     0  03:07        0.05
  MW-20-20             JUNCTION     0.09     0.18    96.18     0  03:17        0.05
  MW-20-21             JUNCTION     0.09     0.18    95.98     0  02:50        0.05
  MW-20-22             JUNCTION     0.09     0.18    95.78     0  02:33        0.05
  MW-20-23             JUNCTION     0.09     0.18    95.58     0  03:29        0.05
  MW-20-24             JUNCTION     0.09     0.18    95.38     0  03:11        0.05
  MW-20-25             JUNCTION     0.09     0.18    95.18     0  03:13        0.05
  MW-20-26             JUNCTION     0.09     0.18    94.98     0  02:56        0.05
  MW-20-27             JUNCTION     0.09     0.18    94.78     0  03:14        0.05
  MW-20-28             JUNCTION     0.09     0.18    94.58     0  02:53        0.05
  MW-20-29             JUNCTION     0.09     0.18    94.38     0  03:21        0.05
  MW-20-30             JUNCTION     0.09     0.18    94.18     0  03:13        0.05
  MW-20-31             JUNCTION     0.09     0.18    93.98     0  03:23        0.05
  MW-20-32             JUNCTION     0.09     0.18    93.78     0  03:51        0.05
  MW-20-33             JUNCTION     0.09     0.18    93.58     0  02:57        0.05
  MW-20-34             JUNCTION     0.09     0.18    93.38     0  02:59        0.05
  MW-20-35             JUNCTION     0.09     0.18    93.18     0  03:27        0.05
  MW-20-36             JUNCTION     0.09     0.18    92.98     0  02:25        0.05
  MW-20-37             JUNCTION     0.09     0.18    92.78     0  03:29        0.05
  MW-20-38             JUNCTION     0.09     0.18    92.58     0  02:53        0.05
  MW-20-39             JUNCTION     0.09     0.18    92.38     0  02:26        0.05
  MW-20-40             JUNCTION     0.09     0.18    92.18     0  03:00        0.05
  MW-20-41             JUNCTION     0.09     0.18    91.98     0  03:02        0.05
  MW-20-42             JUNCTION     0.09     0.18    91.78     0  02:09        0.05
  MW-20-43             JUNCTION     0.09     0.18    91.58     0  02:54        0.05
  MW-20-44             JUNCTION     0.09     0.18    91.38     0  02:20        0.05
  MW-20-45             JUNCTION     0.09     0.18    91.18     0  02:20        0.05
  MW-20-46             JUNCTION     0.09     0.18    90.98     0  02:21        0.05
  MW-20-47             JUNCTION     0.09     0.18    90.78     0  02:22        0.05
  MW-20-48             JUNCTION     0.09     0.18    90.58     0  02:49        0.05
  MW-20-49             JUNCTION     0.09     0.18    90.38     0  02:22        0.05
  MW-20-50             JUNCTION     0.09     0.19    90.19     0  02:50        0.06
  MW-50-A              JUNCTION     0.09     0.19   100.24     0  02:08        0.06
  MW-50-0              JUNCTION     0.09     0.18   100.18     0  03:57        0.05
  MW-50-1              JUNCTION     0.09     0.18    99.68     0  03:43        0.05
  MW-50-2              JUNCTION     0.09     0.18    99.18     0  03:23        0.05
  MW-50-3              JUNCTION     0.09     0.18    98.68     0  02:48        0.05
  MW-50-4              JUNCTION     0.09     0.18    98.18     0  02:43        0.05
  MW-50-5              JUNCTION     0.09     0.18    97.68     0  02:37        0.05
  MW-50-6              JUNCTION     0.09     0.18    97.18     0  03:50        0.05
  MW-50-7              JUNCTION     0.09     0.18    96.68     0  02:16        0.05
  MW-50-8              JUNCTION     0.09     0.18    96.18     0  02:31        0.05
  MW-50-9              JUNCTION     0.09     0.18    95.68     0  03:16        0.05
  MW-50-10             JUNCTION     0.09     0.18    95.18     0  03:16        0.05
  MW-50-11             JUNCTION     0.09     0.18    94.68     0  03:26        0.05
  MW-50-12             JUNCTION     0.09     0.18    94.18     0  03:12        0.05
  MW-50-13             JUNCTION     0.09     0.18    93.68     0  03:48        0.05
  MW-50-14             JUNCTION     0.09     0.18    93.18     0  03:48        0.05
  MW-50-15             JUNCTION     0.09     0.18    92.68     0  02:17        0.05
  MW-50-16             JUNCTION     0.09     0.18    92.18     0  03:37        0.05
  MW-50-17             JUNCTION     0.09     0.18    91.68     0  02:53        0.05
  MW-50-18             JUNCTION     0.09     0.18    91.18     0  02:33        0.05
  MW-50-19             JUNCTION     0.09     0.18    90.68     0  03:38        0.05
  MW-50-20             JUNCTION     0.09     0.19    90.19     0  02:15        0.06
  MW-100-A             JUNCTION     0.09     0.19   100.24     0  03:51        0.06
  MW-100-0             JUNCTION     0.09     0.18   100.18     0  02:23        0.05
  MW-100-1             JUNCTION     0.09     0.18    99.18     0  02:46        0.05
  MW-100-2             JUNCTION     0.09     0.18    98.18     0  02:02        0.05
  MW-100-3             JUNCTION     0.09     0.18    97.18     0  02:50        0.05
  MW-100-4             JUNCTION     0.09     0.18    96.18     0  03:01        0.05
  MW-100-5             JUNCTION     0.09     0.18    95.18     0  03:58        0.05
  MW-100-6             JUNCTION     0.09     0.18    94.18     0  03:21        0.05
  MW-100-7             JUNCTION     0.09     0.18    93.18     0  02:18        0.05
  MW-100-8             JUNCTION     0.09     0.18    92.18     0  02:19        0.05
  MW-100-9             JUNCTION     0.09     0.18    91.18     0  02:59        0.05
  MW-100-10            JUNCTION     0.09     0.19    90.19     0  02:51        0.06
  MW-200-A             JUNCTION     0.09     0.19   100.24     0  02:10        0.06
  MW-200-0             JUNCTION     0.09     0.18   100.18     0  02:11        0.05
  MW-200-1             JUNCTION     0.09     0.18    98.18     0  03:11        0.05
  MW-200-2             JUNCTION     0.09     0.18    96.18     0  03:59        0.05
  MW-200-3             JUNCTION     0.09     0.18    94.18     0  02:02        0.05
  MW-200-4             JUNCTION     0.09     0.18    92.18     0  03:05        0.05
  MW-200-5             JUNCTION     0.09     0.19    90.19     0  02:28        0.06
  MW-500-A             JUNCTION     0.09     0.19   100.24     0  02:22        0.06
  MW-500-0             JUNCTION     0.09     0.18   100.18     0  02:32        0.05
  MW-500-1             JUNCTION     0.09     0.18    95.18     0  02:00        0.05
  MW-500-2             JUNCTION     0.09     0.19    90.19     0  03:03        0.06
  MW-5-E               OUTFALL      0.09     0.22    90.17     0  03:59        0.06
  MW-10-E              OUTFALL      0.09     0.18    90.13     0  03:47        0.05
  MW-20-E              OUTFALL      0.09     0.18    90.13     0  02:50        0.05
  MW-50-E              OUTFALL      0.09     0.18    90.13     0  02:58        0.05
  MW-100-E             OUTFALL      0.09     0.18    90.13     0  03:32        0.05
  MW-200-E             OUTFALL      0.09     0.18    90.13     0  03:56        0.05
  MW-500-E             OUTFALL      0.09     0.18    90.13     0  03:04        0.05
  
  
  *******************
  Node Inflow Summary
  *******************
  
  -------------------------------------------------------------------------------------------------
                                  Maximum  Maximum                  Lateral       Total        Flow
                                  Lateral    Total  Time of Max      Inflow      Inflow     Balance
                                   Inflow   Inflow   Occurrence      Volume      Volume       Error
  Node                 Type           CMS      CMS  days hr:min    10^6 ltr    10^6 ltr     Percent
  -------------------------------------------------------------------------------------------------
  MW-5-A               JUNCTION     0.100    0.100     0  02:00       0.715        1.44       0.025
  MW-5-0               JUNCTION     0.000    0.102     0  02:56           0        1.44       0.035
  MW-5-1               JUNCTION     0.000    0.103     0  02:30           0        1.44       0.038
  MW-5-2               JUNCTION     0.000    0.103     0  02:55           0        1.44       0.035
  MW-5-3               JUNCTION     0.000    0.103     0  02:11           0        1.44       0.038
  MW-5-4               JUNCTION     0.000    0.103     0  02:20           0        1.44       0.036
  MW-5-5               JUNCTION     0.000    0.103     0  02:29           0        1.44       0.036
  MW-5-6               JUNCTION     0.000    0.103     0  02:54           0        1.44       0.037
  MW-5-7               JUNCTION     0.000    0.103     0  02:10           0        1.44       0.036
  MW-5-8               JUNCTION     0.000    0.103     0  02:19           0        1.44       0.039
  MW-5-9               JUNCTION     0.000    0.103     0  02:28           0        1.43       0.036
  MW-5-10              JUNCTION     0.000    0.103     0  03:58           0        1.43       0.039
  MW-5-11              JUNCTION     0.000    0.103     0  02:09           0        1.43       0.036
  MW-5-12              JUNCTION     0.000    0.103     0  02:18           0        1.43       0.039
  MW-5-13              JUNCTION     0.000    0.103     0  02:27           0        1.43       0.036
  MW-5-14              JUNCTION     0.000    0.103     0  03:57           0        1.43       0.039
  MW-5-15              JUNCTION     0.000    0.103     0  02:27           0        1.43       0.036
  MW-5-16              JUNCTION     0.000    0.103     0  02:17           0        1.43       0.039
  MW-5-17              JUNCTION     0.000    0.103     0  03:37           0        1.43       0.036
  MW-5-18              JUNCTION     0.000    0.103     0  03:56           0        1.43       0.039
  MW-5-19              JUNCTION     0.000    0.103     0  03:36           0        1.43       0.036
  MW-5-20              JUNCTION     0.000    0.103     0  02:51           0        1.43       0.039
  MW-5-21              JUNCTION     0.000    0.103     0  02:06           0        1.43       0.036
  MW-5-22              JUNCTION     0.000    0.103     0  02:15           0        1.43       0.039
  MW-5-23              JUNCTION     0.000    0.104     0  02:25           0        1.43       0.036
  MW-5-24              JUNCTION     0.000    0.104     0  02:15           0        1.43       0.039
  MW-5-25              JUNCTION     0.000    0.104     0  02:24           0        1.43       0.036
  MW-5-26              JUNCTION     0.000    0.103     0  02:49           0        1.43       0.039
  MW-5-27              JUNCTION     0.000    0.103     0  03:34           0        1.42       0.036
  MW-5-28              JUNCTION     0.000    0.103     0  03:53           0        1.42       0.039
  MW-5-29              JUNCTION     0.000    0.103     0  02:04           0        1.42       0.036
  MW-5-30              JUNCTION     0.000    0.103     0  02:13           0        1.42       0.039
  MW-5-31              JUNCTION     0.000    0.103     0  03:33           0        1.42       0.036
  MW-5-32              JUNCTION     0.000    0.103     0  02:13           0        1.42       0.038
  MW-5-33              JUNCTION     0.000    0.103     0  02:03           0        1.42       0.037
  MW-5-34              JUNCTION     0.000    0.103     0  02:12           0        1.42       0.037
  MW-5-35              JUNCTION     0.000    0.103     0  03:32           0        1.42       0.038
  MW-5-36              JUNCTION     0.000    0.103     0  02:11           0        1.42       0.036
  MW-5-37              JUNCTION     0.000    0.103     0  03:32           0        1.42       0.039
  MW-5-38              JUNCTION     0.000    0.103     0  02:11           0        1.42       0.036
  MW-5-39              JUNCTION     0.000    0.103     0  02:01           0        1.42       0.039
  MW-5-40              JUNCTION     0.000    0.103     0  03:50           0        1.42       0.037
  MW-5-41              JUNCTION     0.000    0.103     0  03:31           0        1.42       0.039
  MW-5-42              JUNCTION     0.000    0.103     0  02:10           0        1.42       0.037
  MW-5-43              JUNCTION     0.000    0.103     0  03:30           0        1.42       0.039
  MW-5-44              JUNCTION     0.000    0.103     0  02:09           0        1.42       0.036
  MW-5-45              JUNCTION     0.000    0.103     0  02:19           0        1.42       0.039
  MW-5-46              JUNCTION     0.000    0.103     0  03:49           0        1.41       0.037
  MW-5-47              JUNCTION     0.000    0.103     0  03:29           0        1.41       0.039
  MW-5-48              JUNCTION     0.000    0.103     0  02:08           0        1.41       0.037
  MW-5-49              JUNCTION     0.000    0.103     0  02:18           0        1.41       0.039
  MW-5-50              JUNCTION     0.000    0.103     0  02:08           0        1.41       0.036
  MW-5-51              JUNCTION     0.000    0.105     0  02:17           0        1.41       0.039
  MW-5-52              JUNCTION     0.000    0.106     0  03:47           0        1.41       0.037
  MW-5-53              JUNCTION     0.000    0.103     0  03:28           0        1.41       0.039
  MW-5-54              JUNCTION     0.000    0.103     0  02:07           0        1.41       0.038
  MW-5-55              JUNCTION     0.000    0.103     0  03:27           0        1.41       0.037
  MW-5-56              JUNCTION     0.000    0.103     0  03:59           0        1.41       0.038
  MW-5-57              JUNCTION     0.000    0.103     0  03:26           0        1.41       0.037
  MW-5-58              JUNCTION     0.000    0.103     0  02:41           0        1.41       0.037
  MW-5-59              JUNCTION     0.000    0.104     0  03:59           0        1.41       0.039
  MW-5-60              JUNCTION     0.000    0.103     0  02:05           0        1.41       0.037
  MW-5-61              JUNCTION     0.000    0.103     0  03:59           0        1.41       0.039
  MW-5-62              JUNCTION     0.000    0.104     0  02:40           0        1.41       0.037
  MW-5-63              JUNCTION     0.000    0.103     0  03:58           0        1.41       0.039
  MW-5-64              JUNCTION     0.000    0.104     0  02:39           0        1.41       0.037
  MW-5-65              JUNCTION     0.000    0.103     0  03:58           0         1.4       0.040
  MW-5-66              JUNCTION     0.000    0.107     0  02:38           0         1.4       0.037
  MW-5-67              JUNCTION     0.000    0.104     0  02:38           0         1.4       0.040
  MW-5-68              JUNCTION     0.000    0.105     0  02:02           0         1.4       0.037
  MW-5-69              JUNCTION     0.000    0.104     0  03:50           0         1.4       0.040
  MW-5-70              JUNCTION     0.000    0.105     0  02:02           0         1.4       0.037
  MW-5-71              JUNCTION     0.000    0.105     0  03:49           0         1.4       0.040
  MW-5-72              JUNCTION     0.000    0.104     0  03:49           0         1.4       0.037
  MW-5-73              JUNCTION     0.000    0.106     0  03:49           0         1.4       0.040
  MW-5-74              JUNCTION     0.000    0.103     0  03:41           0         1.4       0.037
  MW-5-75              JUNCTION     0.000    0.103     0  03:55           0         1.4       0.040
  MW-5-76              JUNCTION     0.000    0.103     0  02:35           0         1.4       0.037
  MW-5-77              JUNCTION     0.000    0.103     0  03:21           0         1.4       0.040
  MW-5-78              JUNCTION     0.000    0.103     0  03:54           0         1.4       0.037
  MW-5-79              JUNCTION     0.000    0.103     0  02:39           0         1.4       0.040
  MW-5-80              JUNCTION     0.000    0.105     0  03:52           0         1.4       0.037
  MW-5-81              JUNCTION     0.000    0.105     0  03:54           0         1.4       0.040
  MW-5-82              JUNCTION     0.000    0.105     0  03:52           0         1.4       0.037
  MW-5-83              JUNCTION     0.000    0.105     0  03:52           0         1.4       0.040
  MW-5-84              JUNCTION     0.000    0.108     0  03:50           0        1.39       0.037
  MW-5-85              JUNCTION     0.000    0.106     0  03:52           0        1.39       0.040
  MW-5-86              JUNCTION     0.000    0.106     0  03:50           0        1.39       0.037
  MW-5-87              JUNCTION     0.000    0.109     0  03:50           0        1.39       0.040
  MW-5-88              JUNCTION     0.000    0.106     0  02:30           0        1.39       0.037
  MW-5-89              JUNCTION     0.000    0.108     0  03:50           0        1.39       0.040
  MW-5-90              JUNCTION     0.000    0.106     0  02:30           0        1.39       0.037
  MW-5-91              JUNCTION     0.000    0.105     0  03:50           0        1.39       0.040
  MW-5-92              JUNCTION     0.000    0.105     0  03:51           0        1.39       0.037
  MW-5-93              JUNCTION     0.000    0.108     0  02:04           0        1.39       0.040
  MW-5-94              JUNCTION     0.000    0.105     0  03:51           0        1.39       0.037
  MW-5-95              JUNCTION     0.000    0.105     0  03:51           0        1.39       0.040
  MW-5-96              JUNCTION     0.000    0.106     0  03:51           0        1.39       0.037
  MW-5-97              JUNCTION     0.000    0.106     0  03:51           0        1.39       0.040
  MW-5-98              JUNCTION     0.000    0.106     0  03:51           0        1.39       0.038
  MW-5-99              JUNCTION     0.000    0.106     0  03:51           0        1.39       0.040
  MW-5-100             JUNCTION     0.000    0.106     0  03:51           0        1.39       0.037
  MW-5-101             JUNCTION     0.000    0.106     0  03:51           0        1.39       0.040
  MW-5-102             JUNCTION     0.000    0.107     0  03:51           0        1.38       0.037
  MW-5-103             JUNCTION     0.000    0.107     0  03:51           0        1.38       0.040
  MW-5-104             JUNCTION     0.000    0.107     0  03:51           0        1.38       0.038
  MW-5-105             JUNCTION     0.000    0.107     0  03:51           0        1.38       0.040
  MW-5-106             JUNCTION     0.000    0.107     0  03:52           0        1.38       0.037
  MW-5-107             JUNCTION     0.000    0.107     0  03:52           0        1.38       0.040
  MW-5-108             JUNCTION     0.000    0.108     0  03:52           0        1.38       0.037
  MW-5-109             JUNCTION     0.000    0.108     0  03:52           0        1.38       0.037
  MW-5-110             JUNCTION     0.000    0.112     0  02:22           0        1.38       0.037
  MW-5-111             JUNCTION     0.000    0.109     0  03:54           0        1.38       0.037
  MW-5-112             JUNCTION     0.000    0.111     0  03:54           0        1.38       0.037
  MW-5-113             JUNCTION     0.000    0.113     0  03:54           0        1.38       0.037
  MW-5-114             JUNCTION     0.000    0.114     0  03:52           0        1.38       0.037
  MW-5-115             JUNCTION     0.000    0.115     0  03:55           0        1.38       0.037
  MW-5-116             JUNCTION     0.000    0.117     0  03:55           0        1.38       0.038
  MW-5-117             JUNCTION     0.000    0.118     0  03:55           0        1.38       0.038
  MW-5-118             JUNCTION     0.000    0.119     0  03:55           0        1.38       0.037
  MW-5-119             JUNCTION     0.000    0.121     0  03:55           0        1.38       0.037
  MW-5-120             JUNCTION     0.000    0.122     0  03:55           0        1.38       0.037
  MW-5-121             JUNCTION     0.000    0.123     0  03:55           0        1.37       0.037
  MW-5-122             JUNCTION     0.000    0.124     0  02:44           0        1.37       0.038
  MW-5-123             JUNCTION     0.000    0.125     0  02:45           0        1.37       0.037
  MW-5-124             JUNCTION     0.000    0.126     0  02:45           0        1.37       0.037
  MW-5-125             JUNCTION     0.000    0.126     0  02:45           0        1.37       0.037
  MW-5-126             JUNCTION     0.000    0.127     0  02:45           0        1.37       0.038
  MW-5-127             JUNCTION     0.000    0.128     0  02:45           0        1.37       0.038
  MW-5-128             JUNCTION     0.000    0.129     0  02:45           0        1.37       0.038
  MW-5-129             JUNCTION     0.000    0.130     0  02:45           0        1.37       0.038
  MW-5-130             JUNCTION     0.000    0.130     0  02:45           0        1.37       0.038
  MW-5-131             JUNCTION     0.000    0.131     0  02:45           0        1.37       0.038
  MW-5-132             JUNCTION     0.000    0.131     0  02:45           0        1.37       0.038
  MW-5-133             JUNCTION     0.000    0.132     0  02:45           0        1.37       0.037
  MW-5-134             JUNCTION     0.000    0.133     0  02:45           0        1.37       0.038
  MW-5-135             JUNCTION     0.000    0.133     0  02:46           0        1.37       0.037
  MW-5-136             JUNCTION     0.000    0.134     0  02:46           0        1.37       0.037
  MW-5-137             JUNCTION     0.000    0.134     0  02:46           0        1.37       0.038
  MW-5-138             JUNCTION     0.000    0.135     0  02:46           0        1.37       0.038
  MW-5-139             JUNCTION     0.000    0.135     0  02:46           0        1.37       0.038
  MW-5-140             JUNCTION     0.000    0.135     0  03:11           0        1.37       0.037
  MW-5-141             JUNCTION     0.000    0.136     0  03:11           0        1.36       0.037
  MW-5-142             JUNCTION     0.000    0.137     0  03:11           0        1.36       0.037
  MW-5-143             JUNCTION     0.000    0.138     0  03:11           0        1.36       0.038
  MW-5-144             JUNCTION     0.000    0.138     0  03:11           0        1.36       0.038
  MW-5-145             JUNCTION     0.000    0.139     0  03:12           0        1.36       0.038
  MW-5-146             JUNCTION     0.000    0.139     0  03:12           0        1.36       0.038
  MW-5-147             JUNCTION     0.000    0.140     0  03:12           0        1.36       0.038
  MW-5-148             JUNCTION     0.000    0.141     0  03:12           0        1.36       0.041
  MW-5-149             JUNCTION     0.000    0.141     0  03:12           0        1.36       0.046
  MW-5-150             JUNCTION     0.000    0.142     0  03:12           0        1.36       0.045
  MW-5-151             JUNCTION     0.000    0.142     0  03:12           0        1.36       0.042
  MW-5-152             JUNCTION     0.000    0.142     0  03:12           0        1.36       0.039
  MW-5-153             JUNCTION     0.000    0.143     0  03:12           0        1.36       0.038
  MW-5-154             JUNCTION     0.000    0.143     0  03:12           0        1.36       0.038
  MW-5-155             JUNCTION     0.000    0.144     0  03:12           0        1.36       0.037
  MW-5-156             JUNCTION     0.000    0.144     0  03:12           0        1.36       0.037
  MW-5-157             JUNCTION     0.000    0.144     0  03:12           0        1.36       0.037
  MW-5-158             JUNCTION     0.000    0.145     0  03:13           0        1.36       0.037
  MW-5-159             JUNCTION     0.000    0.145     0  02:26           0        1.36       0.037
  MW-5-160             JUNCTION     0.000    0.146     0  02:26           0        1.35       0.037
  MW-5-161             JUNCTION     0.000    0.146     0  02:26           0        1.35       0.038
  MW-5-162             JUNCTION     0.000    0.147     0  02:26           0        1.35       0.037
  MW-5-163             JUNCTION     0.000    0.148     0  02:26           0        1.35       0.037
  MW-5-164             JUNCTION     0.000    0.148     0  02:26           0        1.35       0.037
  MW-5-165             JUNCTION     0.000    0.149     0  02:26           0        1.35       0.038
  MW-5-166             JUNCTION     0.000    0.149     0  02:26           0        1.35       0.037
  MW-5-167             JUNCTION     0.000    0.150     0  02:27           0        1.35       0.038
  MW-5-168             JUNCTION     0.000    0.150     0  02:27           0        1.35       0.037
  MW-5-169             JUNCTION     0.000    0.150     0  02:27           0        1.35       0.037
  MW-5-170             JUNCTION     0.000    0.151     0  02:27           0        1.35       0.037
  MW-5-171             JUNCTION     0.000    0.151     0  02:27           0        1.35       0.038
  MW-5-172             JUNCTION     0.000    0.151     0  02:27           0        1.35       0.038
  MW-5-173             JUNCTION     0.000    0.152     0  02:27           0        1.35       0.040
  MW-5-174             JUNCTION     0.000    0.152     0  02:27           0        1.35       0.048
  MW-5-175             JUNCTION     0.000    0.152     0  02:27           0        1.35       0.054
  MW-5-176             JUNCTION     0.000    0.152     0  02:27           0        1.35       0.048
  MW-5-177             JUNCTION     0.000    0.153     0  02:27           0        1.35       0.042
  MW-5-178             JUNCTION     0.000    0.151     0  02:27           0        1.34       0.039
  MW-5-179             JUNCTION     0.000    0.158     0  02:27           0        1.34       0.038
  MW-5-180             JUNCTION     0.000    0.151     0  03:14           0        1.34       0.037
  MW-5-181             JUNCTION     0.000    0.151     0  03:14           0        1.34       0.037
  MW-5-182             JUNCTION     0.000    0.151     0  03:14           0        1.34       0.037
  MW-5-183             JUNCTION     0.000    0.152     0  03:15           0        1.34       0.037
  MW-5-184             JUNCTION     0.000    0.152     0  03:15           0        1.34       0.037
  MW-5-185             JUNCTION     0.000    0.152     0  03:15           0        1.34       0.038
  MW-5-186             JUNCTION     0.000    0.152     0  03:15           0        1.34       0.037
  MW-5-187             JUNCTION     0.000    0.153     0  03:15           0        1.34       0.037
  MW-5-188             JUNCTION     0.000    0.153     0  03:15           0        1.34       0.037
  MW-5-189             JUNCTION     0.000    0.153     0  03:15           0        1.34       0.038
  MW-5-190             JUNCTION     0.000    0.153     0  03:15           0        1.34       0.037
  MW-5-191             JUNCTION     0.000    0.154     0  03:15           0        1.34       0.038
  MW-5-192             JUNCTION     0.000    0.154     0  03:15           0        1.34       0.037
  MW-5-193             JUNCTION     0.000    0.154     0  03:15           0        1.34       0.038
  MW-5-194             JUNCTION     0.000    0.155     0  03:15           0        1.34       0.037
  MW-5-195             JUNCTION     0.000    0.154     0  03:15           0        1.34       0.038
  MW-5-196             JUNCTION     0.000    0.156     0  03:16           0        1.34       0.036
  MW-5-197             JUNCTION     0.000    0.154     0  03:16           0        1.34       0.038
  MW-5-198             JUNCTION     0.000    0.159     0  03:16           0        1.33       0.040
  MW-5-199             JUNCTION     0.000    0.154     0  03:59           0        1.33       0.039
  MW-5-200             JUNCTION     0.000    0.153     0  03:59           0        1.33       0.045
  MW-10-A              JUNCTION     0.100    0.100     0  02:00       0.715        1.44       0.025
  MW-10-0              JUNCTION     0.000    0.100     0  03:34           0        1.44       0.045
  MW-10-1              JUNCTION     0.000    0.100     0  02:02           0        1.44       0.057
  MW-10-2              JUNCTION     0.000    0.100     0  03:18           0        1.44       0.057
  MW-10-3              JUNCTION     0.000    0.100     0  02:01           0        1.44       0.057
  MW-10-4              JUNCTION     0.000    0.100     0  02:02           0        1.44       0.057
  MW-10-5              JUNCTION     0.000    0.100     0  03:48           0        1.44       0.057
  MW-10-6              JUNCTION     0.000    0.100     0  03:25           0        1.43       0.057
  MW-10-7              JUNCTION     0.000    0.100     0  02:00           0        1.43       0.058
  MW-10-8              JUNCTION     0.000    0.100     0  02:01           0        1.43       0.057
  MW-10-9              JUNCTION     0.000    0.100     0  02:01           0        1.43       0.058
  MW-10-10             JUNCTION     0.000    0.100     0  02:01           0        1.43       0.058
  MW-10-11             JUNCTION     0.000    0.100     0  03:59           0        1.43       0.058
  MW-10-12             JUNCTION     0.000    0.100     0  03:58           0        1.43       0.058
  MW-10-13             JUNCTION     0.000    0.100     0  03:56           0        1.43       0.058
  MW-10-14             JUNCTION     0.000    0.100     0  03:53           0        1.43       0.058
  MW-10-15             JUNCTION     0.000    0.100     0  03:58           0        1.43       0.058
  MW-10-16             JUNCTION     0.000    0.100     0  03:58           0        1.43       0.058
  MW-10-17             JUNCTION     0.000    0.100     0  03:56           0        1.43       0.058
  MW-10-18             JUNCTION     0.000    0.100     0  03:54           0        1.42       0.058
  MW-10-19             JUNCTION     0.000    0.100     0  03:52           0        1.42       0.058
  MW-10-20             JUNCTION     0.000    0.100     0  03:59           0        1.42       0.058
  MW-10-21             JUNCTION     0.000    0.100     0  03:58           0        1.42       0.058
  MW-10-22             JUNCTION     0.000    0.100     0  03:56           0        1.42       0.058
  MW-10-23             JUNCTION     0.000    0.100     0  03:53           0        1.42       0.058
  MW-10-24             JUNCTION     0.000    0.100     0  03:51           0        1.42       0.058
  MW-10-25             JUNCTION     0.000    0.100     0  03:47           0        1.42       0.058
  MW-10-26             JUNCTION     0.000    0.100     0  03:45           0        1.42       0.058
  MW-10-27             JUNCTION     0.000    0.100     0  03:42           0        1.42       0.058
  MW-10-28             JUNCTION     0.000    0.100     0  03:40           0        1.42       0.058
  MW-10-29             JUNCTION     0.000    0.100     0  03:36           0        1.42       0.058
  MW-10-30             JUNCTION     0.000    0.100     0  03:34           0        1.41       0.058
  MW-10-31             JUNCTION     0.000    0.100     0  03:31           0        1.41       0.058
  MW-10-32             JUNCTION     0.000    0.100     0  03:29           0        1.41       0.059
  MW-10-33             JUNCTION     0.000    0.100     0  03:25           0        1.41       0.058
  MW-10-34             JUNCTION     0.000    0.100     0  03:23           0        1.41       0.058
  MW-10-35             JUNCTION     0.000    0.100     0  03:20           0        1.41       0.059
  MW-10-36             JUNCTION     0.000    0.100     0  03:18           0        1.41       0.059
  MW-10-37             JUNCTION     0.000    0.100     0  03:14           0        1.41       0.059
  MW-10-38             JUNCTION     0.000    0.100     0  03:12           0        1.41       0.058
  MW-10-39             JUNCTION     0.000    0.100     0  03:08           0        1.41       0.059
  MW-10-40             JUNCTION     0.000    0.100     0  03:07           0        1.41       0.059
  MW-10-41             JUNCTION     0.000    0.100     0  03:03           0        1.41       0.059
  MW-10-42             JUNCTION     0.000    0.100     0  03:01           0         1.4       0.059
  MW-10-43             JUNCTION     0.000    0.100     0  02:57           0         1.4       0.059
  MW-10-44             JUNCTION     0.000    0.100     0  02:56           0         1.4       0.059
  MW-10-45             JUNCTION     0.000    0.100     0  02:52           0         1.4       0.059
  MW-10-46             JUNCTION     0.000    0.100     0  02:50           0         1.4       0.059
  MW-10-47             JUNCTION     0.000    0.100     0  02:47           0         1.4       0.059
  MW-10-48             JUNCTION     0.000    0.100     0  02:44           0         1.4       0.059
  MW-10-49             JUNCTION     0.000    0.100     0  02:41           0         1.4       0.059
  MW-10-50             JUNCTION     0.000    0.100     0  02:40           0         1.4       0.059
  MW-10-51             JUNCTION     0.000    0.100     0  02:36           0         1.4       0.059
  MW-10-52             JUNCTION     0.000    0.100     0  02:33           0         1.4       0.059
  MW-10-53             JUNCTION     0.000    0.100     0  02:29           0         1.4       0.059
  MW-10-54             JUNCTION     0.000    0.100     0  02:28           0         1.4       0.059
  MW-10-55             JUNCTION     0.000    0.100     0  02:25           0        1.39       0.059
  MW-10-56             JUNCTION     0.000    0.100     0  02:22           0        1.39       0.059
  MW-10-57             JUNCTION     0.000    0.100     0  02:18           0        1.39       0.059
  MW-10-58             JUNCTION     0.000    0.100     0  02:18           0        1.39       0.059
  MW-10-59             JUNCTION     0.000    0.100     0  02:14           0        1.39       0.059
  MW-10-60             JUNCTION     0.000    0.100     0  02:11           0        1.39       0.059
  MW-10-61             JUNCTION     0.000    0.100     0  02:07           0        1.39       0.059
  MW-10-62             JUNCTION     0.000    0.100     0  02:06           0        1.39       0.059
  MW-10-63             JUNCTION     0.000    0.100     0  02:03           0        1.39       0.059
  MW-10-64             JUNCTION     0.000    0.100     0  02:00           0        1.39       0.060
  MW-10-65             JUNCTION     0.000    0.100     0  02:01           0        1.39       0.059
  MW-10-66             JUNCTION     0.000    0.100     0  02:01           0        1.39       0.059
  MW-10-67             JUNCTION     0.000    0.100     0  02:01           0        1.38       0.060
  MW-10-68             JUNCTION     0.000    0.100     0  02:01           0        1.38       0.060
  MW-10-69             JUNCTION     0.000    0.100     0  02:00           0        1.38       0.060
  MW-10-70             JUNCTION     0.000    0.100     0  02:00           0        1.38       0.060
  MW-10-71             JUNCTION     0.000    0.100     0  02:01           0        1.38       0.060
  MW-10-72             JUNCTION     0.000    0.100     0  02:01           0        1.38       0.060
  MW-10-73             JUNCTION     0.000    0.100     0  02:02           0        1.38       0.060
  MW-10-74             JUNCTION     0.000    0.100     0  02:02           0        1.38       0.060
  MW-10-75             JUNCTION     0.000    0.100     0  02:00           0        1.38       0.060
  MW-10-76             JUNCTION     0.000    0.100     0  02:00           0        1.38       0.060
  MW-10-77             JUNCTION     0.000    0.100     0  03:53           0        1.38       0.060
  MW-10-78             JUNCTION     0.000    0.100     0  03:54           0        1.38       0.060
  MW-10-79             JUNCTION     0.000    0.100     0  03:54           0        1.37       0.060
  MW-10-80             JUNCTION     0.000    0.100     0  03:54           0        1.37       0.060
  MW-10-81             JUNCTION     0.000    0.100     0  03:54           0        1.37       0.060
  MW-10-82             JUNCTION     0.000    0.100     0  03:54           0        1.37       0.060
  MW-10-83             JUNCTION     0.000    0.100     0  03:54           0        1.37       0.060
  MW-10-84             JUNCTION     0.000    0.100     0  03:54           0        1.37       0.060
  MW-10-85             JUNCTION     0.000    0.100     0  03:54           0        1.37       0.060
  MW-10-86             JUNCTION     0.000    0.100     0  03:54           0        1.37       0.060
  MW-10-87             JUNCTION     0.000    0.100     0  03:55           0        1.37       0.060
  MW-10-88             JUNCTION     0.000    0.100     0  03:55           0        1.37       0.060
  MW-10-89             JUNCTION     0.000    0.100     0  03:55           0        1.37       0.061
  MW-10-90             JUNCTION     0.000    0.100     0  03:55           0        1.37       0.060
  MW-10-91             JUNCTION     0.000    0.100     0  03:55           0        1.36       0.061
  MW-10-92             JUNCTION     0.000    0.100     0  03:55           0        1.36       0.061
  MW-10-93             JUNCTION     0.000    0.100     0  03:55           0        1.36       0.060
  MW-10-94             JUNCTION     0.000    0.100     0  03:55           0        1.36       0.061
  MW-10-95             JUNCTION     0.000    0.100     0  03:56           0        1.36       0.061
  MW-10-96             JUNCTION     0.000    0.100     0  03:56           0        1.36       0.061
  MW-10-97             JUNCTION     0.000    0.100     0  03:46           0        1.36       0.061
  MW-10-98             JUNCTION     0.000    0.100     0  03:46           0        1.36       0.061
  MW-10-99             JUNCTION     0.000    0.100     0  03:47           0        1.36       0.061
  MW-10-100            JUNCTION     0.000    0.100     0  03:47           0        1.36       0.056
  MW-20-A              JUNCTION     0.100    0.100     0  02:00       0.715        1.44       0.024
  MW-20-0              JUNCTION     0.000    0.100     0  03:51           0        1.44       0.064
  MW-20-1              JUNCTION     0.000    0.100     0  02:41           0        1.44       0.101
  MW-20-2              JUNCTION     0.000    0.100     0  02:52           0        1.44       0.100
  MW-20-3              JUNCTION     0.000    0.100     0  03:52           0        1.44       0.100
  MW-20-4              JUNCTION     0.000    0.100     0  02:11           0        1.43       0.100
  MW-20-5              JUNCTION     0.000    0.100     0  03:52           0        1.43       0.100
  MW-20-6              JUNCTION     0.000    0.100     0  03:01           0        1.43       0.100
  MW-20-7              JUNCTION     0.000    0.100     0  03:54           0        1.43       0.101
  MW-20-8              JUNCTION     0.000    0.100     0  02:29           0        1.43       0.101
  MW-20-9              JUNCTION     0.000    0.100     0  03:51           0        1.43       0.101
  MW-20-10             JUNCTION     0.000    0.100     0  02:36           0        1.43       0.101
  MW-20-11             JUNCTION     0.000    0.100     0  02:37           0        1.42       0.101
  MW-20-12             JUNCTION     0.000    0.100     0  03:41           0        1.42       0.101
  MW-20-13             JUNCTION     0.000    0.100     0  02:01           0        1.42       0.101
  MW-20-14             JUNCTION     0.000    0.100     0  03:14           0        1.42       0.101
  MW-20-15             JUNCTION     0.000    0.100     0  02:47           0        1.42       0.101
  MW-20-16             JUNCTION     0.000    0.100     0  02:21           0        1.42       0.102
  MW-20-17             JUNCTION     0.000    0.100     0  03:25           0        1.42       0.102
  MW-20-18             JUNCTION     0.000    0.100     0  02:03           0        1.41       0.102
  MW-20-19             JUNCTION     0.000    0.100     0  02:21           0        1.41       0.102
  MW-20-20             JUNCTION     0.000    0.100     0  03:44           0        1.41       0.102
  MW-20-21             JUNCTION     0.000    0.100     0  02:50           0        1.41       0.102
  MW-20-22             JUNCTION     0.000    0.100     0  03:54           0        1.41       0.102
  MW-20-23             JUNCTION     0.000    0.100     0  03:10           0        1.41       0.102
  MW-20-24             JUNCTION     0.000    0.100     0  03:02           0        1.41       0.102
  MW-20-25             JUNCTION     0.000    0.100     0  03:12           0         1.4       0.103
  MW-20-26             JUNCTION     0.000    0.100     0  03:40           0         1.4       0.103
  MW-20-27             JUNCTION     0.000    0.100     0  03:13           0         1.4       0.103
  MW-20-28             JUNCTION     0.000    0.100     0  02:56           0         1.4       0.103
  MW-20-29             JUNCTION     0.000    0.100     0  02:56           0         1.4       0.103
  MW-20-30             JUNCTION     0.000    0.100     0  02:54           0         1.4       0.103
  MW-20-31             JUNCTION     0.000    0.100     0  03:23           0         1.4       0.103
  MW-20-32             JUNCTION     0.000    0.100     0  02:29           0        1.39       0.103
  MW-20-33             JUNCTION     0.000    0.100     0  02:57           0        1.39       0.103
  MW-20-34             JUNCTION     0.000    0.100     0  03:26           0        1.39       0.104
  MW-20-35             JUNCTION     0.000    0.100     0  02:23           0        1.39       0.104
  MW-20-36             JUNCTION     0.000    0.100     0  03:00           0        1.39       0.104
  MW-20-37             JUNCTION     0.000    0.100     0  03:37           0        1.39       0.104
  MW-20-38             JUNCTION     0.000    0.100     0  02:16           0        1.39       0.104
  MW-20-39             JUNCTION     0.000    0.100     0  03:20           0        1.38       0.104
  MW-20-40             JUNCTION     0.000    0.100     0  02:54           0        1.38       0.104
  MW-20-41             JUNCTION     0.000    0.100     0  03:58           0        1.38       0.104
  MW-20-42             JUNCTION     0.000    0.100     0  02:18           0        1.38       0.104
  MW-20-43             JUNCTION     0.000    0.100     0  02:36           0        1.38       0.104
  MW-20-44             JUNCTION     0.000    0.100     0  02:20           0        1.38       0.105
  MW-20-45             JUNCTION     0.000    0.100     0  03:33           0        1.38       0.105
  MW-20-46             JUNCTION     0.000    0.100     0  02:49           0        1.37       0.105
  MW-20-47             JUNCTION     0.000    0.100     0  02:49           0        1.37       0.105
  MW-20-48             JUNCTION     0.000    0.100     0  03:34           0        1.37       0.105
  MW-20-49             JUNCTION     0.000    0.100     0  02:22           0        1.37       0.106
  MW-20-50             JUNCTION     0.000    0.100     0  02:49           0        1.37       0.082
  MW-50-A              JUNCTION     0.100    0.100     0  02:00       0.715        1.44       0.024
  MW-50-0              JUNCTION     0.000    0.100     0  03:04           0        1.44       0.121
  MW-50-1              JUNCTION     0.000    0.100     0  03:25           0        1.44       0.231
  MW-50-2              JUNCTION     0.000    0.100     0  02:03           0        1.43       0.230
  MW-50-3              JUNCTION     0.000    0.100     0  03:54           0        1.43       0.230
  MW-50-4              JUNCTION     0.000    0.100     0  02:01           0        1.43       0.230
  MW-50-5              JUNCTION     0.000    0.100     0  03:38           0        1.42       0.231
  MW-50-6              JUNCTION     0.000    0.100     0  03:38           0        1.42       0.231
  MW-50-7              JUNCTION     0.000    0.100     0  02:17           0        1.42       0.232
  MW-50-8              JUNCTION     0.000    0.100     0  03:15           0        1.41       0.232
  MW-50-9              JUNCTION     0.000    0.100     0  03:15           0        1.41       0.233
  MW-50-10             JUNCTION     0.000    0.100     0  03:12           0        1.41       0.233
  MW-50-11             JUNCTION     0.000    0.100     0  03:12           0         1.4       0.234
  MW-50-12             JUNCTION     0.000    0.100     0  03:26           0         1.4       0.234
  MW-50-13             JUNCTION     0.000    0.100     0  03:24           0         1.4       0.235
  MW-50-14             JUNCTION     0.000    0.100     0  02:08           0        1.39       0.235
  MW-50-15             JUNCTION     0.000    0.100     0  03:49           0        1.39       0.236
  MW-50-16             JUNCTION     0.000    0.100     0  03:55           0        1.39       0.237
  MW-50-17             JUNCTION     0.000    0.100     0  02:16           0        1.39       0.237
  MW-50-18             JUNCTION     0.000    0.100     0  03:07           0        1.38       0.238
  MW-50-19             JUNCTION     0.000    0.100     0  03:42           0        1.38       0.240
  MW-50-20             JUNCTION     0.000    0.100     0  02:00           0        1.38       0.157
  MW-100-A             JUNCTION     0.100    0.100     0  02:00       0.715        1.44       0.023
  MW-100-0             JUNCTION     0.000    0.100     0  02:13           0        1.44       0.217
  MW-100-1             JUNCTION     0.000    0.100     0  02:18           0        1.44       0.449
  MW-100-2             JUNCTION     0.000    0.100     0  02:47           0        1.43       0.448
  MW-100-3             JUNCTION     0.000    0.100     0  03:01           0        1.42       0.449
  MW-100-4             JUNCTION     0.000    0.100     0  02:42           0        1.42       0.450
  MW-100-5             JUNCTION     0.000    0.100     0  03:02           0        1.41       0.452
  MW-100-6             JUNCTION     0.000    0.100     0  03:18           0         1.4       0.454
  MW-100-7             JUNCTION     0.000    0.100     0  03:57           0         1.4       0.456
  MW-100-8             JUNCTION     0.000    0.100     0  03:57           0        1.39       0.458
  MW-100-9             JUNCTION     0.000    0.100     0  03:16           0        1.39       0.463
  MW-100-10            JUNCTION     0.000    0.100     0  02:01           0        1.38       0.284
  MW-200-A             JUNCTION     0.100    0.100     0  02:00       0.715        1.44       0.023
  MW-200-0             JUNCTION     0.000    0.100     0  03:23           0        1.44       0.409
  MW-200-1             JUNCTION     0.000    0.100     0  03:05           0        1.43       0.889
  MW-200-2             JUNCTION     0.000    0.100     0  02:36           0        1.42       0.890
  MW-200-3             JUNCTION     0.000    0.100     0  03:47           0        1.41       0.896
  MW-200-4             JUNCTION     0.000    0.100     0  02:09           0         1.4       0.910
  MW-200-5             JUNCTION     0.000    0.100     0  02:00           0        1.38       0.538
  MW-500-A             JUNCTION     0.100    0.100     0  02:00       0.715        1.44       0.023
  MW-500-0             JUNCTION     0.000    0.100     0  02:03           0        1.44       0.989
  MW-500-1             JUNCTION     0.000    0.100     0  02:31           0        1.43       2.257
  MW-500-2             JUNCTION     0.000    0.100     0  02:00           0        1.39       1.321
  MW-5-E               OUTFALL      0.000    0.153     0  03:59           0        1.33       0.000
  MW-10-E              OUTFALL      0.000    0.100     0  03:47           0        1.36       0.000
  MW-20-E              OUTFALL      0.000    0.100     0  02:50           0        1.37       0.000
  MW-50-E              OUTFALL      0.000    0.100     0  02:58           0        1.37       0.000
  MW-100-E             OUTFALL      0.000    0.100     0  03:32           0        1.38       0.000
  MW-200-E             OUTFALL      0.000    0.100     0  03:56           0        1.38       0.000
  MW-500-E             OUTFALL      0.000    0.100     0  03:04           0        1.38       0.000
  
  
  **********************
  Node Surcharge Summary
  **********************
  
  No nodes were surcharged.
  
  
  *********************
  Node Flooding Summary
  *********************
  
  No nodes were flooded.
  
  
  ***********************
  Outfall Loading Summary
  ***********************
  
  -------------------------------------------------------------------------
[...]
  H-20-42                 1.00   0.00  0.00  0.00  0.00  0.50  0.00  0.00  0.06  0.00
  H-20-43                 1.00   0.00  0.00  0.00  0.00  0.50  0.00  0.00  0.07  0.00
  H-20-44                 1.00   0.00  0.00  0.00  0.00  0.50  0.00  0.00  0.05  0.00
  H-20-45                 1.00   0.00  0.00  0.00  0.00  0.50  0.00  0.00  0.08  0.00
  H-20-46                 1.00   0.00  0.00  0.00  0.00  0.50  0.00  0.00  0.00  0.00
  H-20-47                 1.00   0.00  0.00  0.00  0.00  0.50  0.00  0.00  0.09  0.00
  H-20-48                 1.00   0.00  0.00  0.00  0.00  0.50  0.00  0.00  0.00  0.00
  H-20-49                 1.00   0.00  0.00  0.00  0.00  0.50  0.00  0.00  0.50  0.00
  H-20-E                  1.00   0.00  0.00  0.00  0.00  0.50  0.00  0.00  0.00  0.00
  H-50-A                  1.00   0.00  0.00  0.00  0.00  0.50  0.00  0.00  0.00  0.00
  H-50-0                  1.00   0.00  0.00  0.00  0.00  0.50  0.00  0.00  0.00  0.00
  H-50-1                  1.00   0.00  0.00  0.00  0.00  0.50  0.00  0.00  0.00  0.00
  H-50-2                  1.00   0.00  0.00  0.00  0.00  0.50  0.00  0.00  0.00  0.00
  H-50-3                  1.00   0.00  0.00  0.00  0.00  0.50  0.00  0.00  0.00  0.00
  H-50-4                  1.00   0.00  0.00  0.00  0.00  0.50  0.00  0.00  0.00  0.00
  H-50-5                  1.00   0.00  0.00  0.00  0.00  0.50  0.00  0.00  0.00  0.00
  H-50-6                  1.00   0.00  0.00  0.00  0.00  0.50  0.00  0.00  0.00  0.00
  H-50-7                  1.00   0.00  0.00  0.00  0.00  0.50  0.00  0.00  0.00  0.00
  H-50-8                  1.00   0.00  0.00  0.00  0.00  0.50  0.00  0.00  0.00  0.00
  H-50-9                  1.00   0.00  0.00  0.00  0.00  0.50  0.00  0.00  0.00  0.00
  H-50-10                 1.00   0.00  0.00  0.00  0.00  0.50  0.00  0.00  0.00  0.00
  H-50-11                 1.00   0.00  0.00  0.00  0.00  0.50  0.00  0.00  0.00  0.00
  H-50-12                 1.00   0.00  0.00  0.00  0.00  0.50  0.00  0.00  0.00  0.00
  H-50-13                 1.00   0.00  0.00  0.00  0.00  0.50  0.00  0.00  0.00  0.00
  H-50-14                 1.00   0.00  0.00  0.00  0.00  0.50  0.00  0.00  0.00  0.00
  H-50-15                 1.00   0.00  0.00  0.00  0.00  0.50  0.00  0.00  0.00  0.00
  H-50-16                 1.00   0.00  0.00  0.00  0.00  0.50  0.00  0.00  0.00  0.00
  H-50-17                 1.00   0.00  0.00  0.00  0.00  0.50  0.00  0.00  0.00  0.00
  H-50-18                 1.00   0.00  0.00  0.00  0.00  0.50  0.00  0.00  0.00  0.00
  H-50-19                 1.00   0.00  0.00  0.00  0.00  0.50  0.00  0.00  0.50  0.00
  H-50-E                  1.00   0.00  0.00  0.00  0.00  0.50  0.00  0.00  0.00  0.00
  H-100-A                 1.00   0.00  0.00  0.00  0.00  0.50  0.00  0.00  0.00  0.00
  H-100-0                 1.00   0.00  0.00  0.00  0.00  0.50  0.00  0.00  0.00  0.00
  H-100-1                 1.00   0.00  0.00  0.00  0.00  0.50  0.00  0.00  0.00  0.00
  H-100-2                 1.00   0.00  0.00  0.00  0.00  0.50  0.00  0.00  0.00  0.00
  H-100-3                 1.00   0.00  0.00  0.00  0.00  0.50  0.00  0.00  0.00  0.00
  H-100-4                 1.00   0.00  0.00  0.00  0.00  0.50  0.00  0.00  0.00  0.00
  H-100-5                 1.00   0.00  0.00  0.00  0.00  0.50  0.00  0.00  0.00  0.00
  H-100-6                 1.00   0.00  0.00  0.00  0.00  0.50  0.00  0.00  0.00  0.00
  H-100-7                 1.00   0.00  0.00  0.00  0.00  0.50  0.00  0.00  0.00  0.00
  H-100-8                 1.00   0.00  0.00  0.00  0.00  0.50  0.00  0.00  0.00  0.00
  H-100-9                 1.00   0.00  0.00  0.00  0.00  0.50  0.00  0.00  0.50  0.00
  H-100-E                 1.00   0.00  0.00  0.00  0.00  0.50  0.00  0.00  0.00  0.00
  H-200-A                 1.00   0.00  0.00  0.00  0.00  0.50  0.00  0.00  0.00  0.00
  H-200-0                 1.00   0.00  0.00  0.00  0.00  0.50  0.00  0.00  0.00  0.00
  H-200-1                 1.00   0.00  0.00  0.00  0.00  0.50  0.00  0.00  0.00  0.00
  H-200-2                 1.00   0.00  0.00  0.00  0.00  0.50  0.00  0.00  0.00  0.00
  H-200-3                 1.00   0.00  0.00  0.00  0.00  0.50  0.00  0.00  0.00  0.00
  H-200-4                 1.00   0.00  0.00  0.00  0.00  0.50  0.00  0.00  0.50  0.00
  H-200-E                 1.00   0.00  0.00  0.00  0.00  0.50  0.00  0.00  0.00  0.00
  H-500-A                 1.00   0.00  0.00  0.00  0.00  0.50  0.00  0.00  0.00  0.00
  H-500-0                 1.00   0.00  0.00  0.00  0.00  0.50  0.00  0.00  0.00  0.00
  H-500-1                 1.00   0.00  0.00  0.00  0.00  0.50  0.00  0.00  0.50  0.00
  H-500-E                 1.00   0.00  0.00  0.00  0.00  0.50  0.00  0.00  0.00  0.00
  
  
  *************************
  Conduit Surcharge Summary
  *************************
  
  No conduits were surcharged.
  
  
  ***************************
  Link Pollutant Load Summary
  ***************************
  
  ----------------------------------
                           Pollutant
  Link                            kg
  ----------------------------------
  H-5-A                      600.000
  H-5-0                      600.000
  H-5-1                      599.985
  H-5-2                      600.055
  H-5-3                      599.914
  H-5-4                      600.198
  H-5-5                      599.912
  H-5-6                      600.279
  H-5-7                      599.919
  H-5-8                      600.298
  H-5-9                      599.920
  H-5-10                     600.301
  H-5-11                     599.920
  H-5-12                     600.301
  H-5-13                     599.920
  H-5-14                     600.301
  H-5-15                     599.920
  H-5-16                     600.301
  H-5-17                     599.920
  H-5-18                     600.301
  H-5-19                     599.920
  H-5-20                     600.301
  H-5-21                     599.920
  H-5-22                     600.301
  H-5-23                     599.920
  H-5-24                     600.301
  H-5-25                     599.920
  H-5-26                     600.301
  H-5-27                     599.920
  H-5-28                     600.298
  H-5-29                     599.933
  H-5-30                     600.260
  H-5-31                     600.028
  H-5-32                     600.171
  H-5-33                     600.204
  H-5-34                     600.056
  H-5-35                     600.294
  H-5-36                     599.963
  H-5-37                     600.301
  H-5-38                     599.926
  H-5-39                     600.301
  H-5-40                     599.921
  H-5-41                     600.300
  H-5-42                     599.919
  H-5-43                     600.300
  H-5-44                     599.919
  H-5-45                     600.300
  H-5-46                     599.919
  H-5-47                     600.300
  H-5-48                     599.918
  H-5-49                     600.299
  H-5-50                     599.918
  H-5-51                     600.299
  H-5-52                     599.918
  H-5-53                     600.299
  H-5-54                     599.918
  H-5-55                     600.297
  H-5-56                     599.922
  H-5-57                     600.283
  H-5-58                     599.960
  H-5-59                     600.229
  H-5-60                     600.082
  H-5-61                     600.136
  H-5-62                     600.225
  H-5-63                     600.025
  H-5-64                     600.288
  H-5-65                     599.944
  H-5-66                     600.300
  H-5-67                     599.919
  H-5-68                     600.300
  H-5-69                     599.918
  H-5-70                     600.300
  H-5-71                     599.918
  H-5-72                     600.300
  H-5-73                     599.918
  H-5-74                     600.300
  H-5-75                     599.918
  H-5-76                     600.300
  H-5-77                     599.918
  H-5-78                     600.301
  H-5-79                     599.918
  H-5-80                     600.301
  H-5-81                     599.919
  H-5-82                     600.302
  H-5-83                     599.919
  H-5-84                     600.303
  H-5-85                     599.923
  H-5-86                     600.298
  H-5-87                     600.026
  H-5-88                     600.146
  H-5-89                     600.000
  H-5-90                     600.028
  H-5-91                     599.984
  H-5-92                     599.985
  H-5-93                     599.981
  H-5-94                     599.983
  H-5-95                     599.979
  H-5-96                     599.982
  H-5-97                     599.977
  H-5-98                     599.980
  H-5-99                     599.975
  H-5-100                    599.979
  H-5-101                    599.973
  H-5-102                    599.978
  H-5-103                    599.970
  H-5-104                    599.976
  H-5-105                    599.966
  H-5-106                    599.935
  H-5-107                    600.007
  H-5-108                    599.936
  H-5-109                    600.069
  H-5-110                    600.081
  H-5-111                    600.018
  H-5-112                    600.092
  H-5-113                    599.957
  H-5-114                    600.020
  H-5-115                    599.914
  H-5-116                    599.924
  H-5-117                    599.937
  H-5-118                    599.951
  H-5-119                    599.970
  H-5-120                    599.979
  H-5-121                    600.033
  H-5-122                    599.974
  H-5-123                    599.989
  H-5-124                    600.007
  H-5-125                    600.028
  H-5-126                    600.041
  H-5-127                    600.088
  H-5-128                    600.044
  H-5-129                    600.158
  H-5-130                    599.989
  H-5-131                    600.093
  H-5-132                    599.933
  H-5-133                    599.945
  H-5-134                    599.965
  H-5-135                    599.984
  H-5-136                    600.002
  H-5-137                    600.021
  H-5-138                    600.039
  H-5-139                    600.057
  H-5-140                    600.075
  H-5-141                    600.093
  H-5-142                    600.111
  H-5-143                    600.128
  H-5-144                    600.146
  H-5-145                    600.164
  H-5-146                    600.181
  H-5-147                    600.199
  H-5-148                    600.216
  H-5-149                    600.233
  H-5-150                    600.249
  H-5-151                    600.265
  H-5-152                    600.281
  H-5-153                    600.297
  H-5-154                    600.314
  H-5-155                    600.330
  H-5-156                    600.347
  H-5-157                    600.362
  H-5-158                    600.378
  H-5-159                    600.392
  H-5-160                    600.407
  H-5-161                    600.422
  H-5-162                    600.437
  H-5-163                    600.453
  H-5-164                    600.469
  H-5-165                    600.483
  H-5-166                    600.496
  H-5-167                    600.510
  H-5-168                    600.524
  H-5-169                    600.539
  H-5-170                    600.554
  H-5-171                    600.569
  H-5-172                    600.583
  H-5-173                    600.596
  H-5-174                    600.609
  H-5-175                    600.623
  H-5-176                    600.638
  H-5-177                    600.653
  H-5-178                    600.665
  H-5-179                    600.677
  H-5-180                    600.690
  H-5-181                    600.701
  H-5-182                    600.715
  H-5-183                    600.728
  H-5-184                    600.739
  H-5-185                    600.755
  H-5-186                    600.871
  H-5-187                    600.688
  H-5-188                    600.669
  H-5-189                    600.699
  H-5-190                    600.674
  H-5-191                    600.736
  H-5-192                    600.747
  H-5-193                    600.868
  H-5-194                    600.677
  H-5-195                    600.780
  H-5-196                    600.601
  H-5-197                    600.689
  H-5-198                    600.508
  H-5-199                    600.488
  H-5-E                      600.479
  H-10-A                     600.000
  H-10-0                     600.000
  H-10-1                     600.000
  H-10-2                     600.000
  H-10-3                     600.000
  H-10-4                     600.000
  H-10-5                     600.000
  H-10-6                     600.000
  H-10-7                     600.000
  H-10-8                     600.000
  H-10-9                     600.000
  H-10-10                    600.000
  H-10-11                    600.000
  H-10-12                    600.000
  H-10-13                    600.000
  H-10-14                    600.000
  H-10-15                    600.000
  H-10-16                    600.000
  H-10-17                    600.000
  H-10-18                    600.000
  H-10-19                    600.000
  H-10-20                    600.000
  H-10-21                    600.000
  H-10-22                    600.000
  H-10-23                    600.000
  H-10-24                    600.000
  H-10-25                    600.000
  H-10-26                    600.000
  H-10-27                    600.000
  H-10-28                    600.000
  H-10-29                    600.000
  H-10-30                    600.000
  H-10-31                    600.000
  H-10-32                    600.000
  H-10-33                    600.000
  H-10-34                    600.000
  H-10-35                    600.000
  H-10-36                    600.000
  H-10-37                    600.000
  H-10-38                    600.000
  H-10-39                    600.000
  H-10-40                    600.000
  H-10-41                    600.000
  H-10-42                    600.000
  H-10-43                    600.000
  H-10-44                    600.000
  H-10-45                    600.000
  H-10-46                    600.000
  H-10-47                    600.000
  H-10-48                    600.000
  H-10-49                    600.000
  H-10-50                    600.000
  H-10-51                    600.000
  H-10-52                    600.000
  H-10-53                    600.000
  H-10-54                    600.000
  H-10-55                    600.000
  H-10-56                    600.000
  H-10-57                    600.000
  H-10-58                    600.000
  H-10-59                    600.000
  H-10-60                    600.000
  H-10-61                    600.000
  H-10-62                    600.000
  H-10-63                    600.000
  H-10-64                    600.000
  H-10-65                    600.000
  H-10-66                    600.000
  H-10-67                    600.000
  H-10-68                    600.000
  H-10-69                    600.000
  H-10-70                    600.000
  H-10-71                    600.000
  H-10-72                    600.000
  H-10-73                    600.000
  H-10-74                    600.000
  H-10-75                    600.000
  H-10-76                    600.000
  H-10-77                    600.000
  H-10-78                    600.000
  H-10-79                    600.000
  H-10-80                    600.000
  H-10-81                    600.000
  H-10-82                    600.000
  H-10-83                    600.000
  H-10-84                    600.000
  H-10-85                    600.000
  H-10-86                    600.000
  H-10-87                    600.000
  H-10-88                    600.000
  H-10-89                    600.000
  H-10-90                    600.000
  H-10-91                    600.000
  H-10-92                    600.000
  H-10-93                    600.000
  H-10-94                    600.000
  H-10-95                    600.000
  H-10-96                    600.000
  H-10-97                    600.000
  H-10-98                    600.000
  H-10-99                    600.000
  H-10-E                     600.000
  H-20-A                     600.000
  H-20-0                     600.000
  H-20-1                     600.000
  H-20-2                     600.000
  H-20-3                     600.000
  H-20-4                     600.000
  H-20-5                     600.000
  H-20-6                     600.000
  H-20-7                     600.000
  H-20-8                     600.000
  H-20-9                     600.000
  H-20-10                    600.000
  H-20-11                    600.000
  H-20-12                    600.000
  H-20-13                    600.000
  H-20-14                    600.000
  H-20-15                    600.000
  H-20-16                    600.000
  H-20-17                    600.000
  H-20-18                    600.000
  H-20-19                    600.000
  H-20-20                    600.000
  H-20-21                    600.000
  H-20-22                    600.000
  H-20-23                    600.000
  H-20-24                    600.000
  H-20-25                    600.000
  H-20-26                    600.000
  H-20-27                    600.000
  H-20-28                    600.000
  H-20-29                    600.000
  H-20-30                    600.000
  H-20-31                    600.000
  H-20-32                    600.000
  H-20-33                    600.000
  H-20-34                    600.000
  H-20-35                    600.000
  H-20-36                    600.000
  H-20-37                    600.000
  H-20-38                    600.000
  H-20-39                    600.000
  H-20-40                    600.000
  H-20-41                    600.000
  H-20-42                    600.000
  H-20-43                    600.000
  H-20-44                    600.000
  H-20-45                    600.000
  H-20-46                    600.000
  H-20-47                    600.000
  H-20-48                    600.000
  H-20-49                    600.000
  H-20-E                     600.000
  H-50-A                     600.000
  H-50-0                     600.000
  H-50-1                     600.000
  H-50-2                     600.000
  H-50-3                     600.000
  H-50-4                     600.000
  H-50-5                     600.000
  H-50-6                     600.000
  H-50-7                     600.000
  H-50-8                     600.000
  H-50-9                     600.000
  H-50-10                    600.000
  H-50-11                    600.000
  H-50-12                    600.000
  H-50-13                    600.000
  H-50-14                    600.000
  H-50-15                    600.000
  H-50-16                    600.000
  H-50-17                    600.000
  H-50-18                    600.000
  H-50-19                    600.000
  H-50-E                     600.000
  H-100-A                    600.000
  H-100-0                    600.000
  H-100-1                    600.000
  H-100-2                    600.000
  H-100-3                    600.000
  H-100-4                    600.000
  H-100-5                    600.000
  H-100-6                    600.000
  H-100-7                    600.000
  H-100-8                    600.000
  H-100-9                    600.000
  H-100-E                    600.000
  H-200-A                    600.000
  H-200-0                    600.000
  H-200-1                    600.000
  H-200-2                    600.000
  H-200-3                    600.000
  H-200-4                    600.000
  H-200-E                    600.000
  H-500-A                    600.000
  H-500-0                    600.000
  H-500-1                    600.000
  H-500-E                    600.000
  

  Analysis begun on:  Sun Dec 20 11:53:53 2020
  Analysis ended on:  Sun Dec 20 11:54:03 2020
  Total elapsed time: 00:00:10